Sys/ckt5/ckt5_EXP_VOLTAGES.CSV
Bus,BasekV,Node1,Magnitude1,Angle1,pu1,Node2,Magnitude2,Angle2,pu2,Node3,Magnitude3,Angle3,pu3
"SOURCEBUS",115,1,69715,0.0,1.05,2,69715,-120.0,1.05,3,69715,120.0,1.05
"_MDV_SUB_1_LSB",12.47,1,7318.56,-33.4,1.0165,2,7305.84,-153.7,1.0148,3,7319.16,86.7,1.0166
"MDV201",12.47,1,7318.56,-33.4,1.0165,2,7305.84,-153.7,1.0148,3,7319.16,86.7,1.0166
"94743",12.47,1,7112.21,-34.2,0.98787,0,0,0,0,0,0,0,0
"94744",12.47,1,7112.12,-34.2,0.98785,0,0,0,0,0,0,0,0
"62244",12.47,3,7170.6,85.3,0.99598,0,0,0,0,0,0,0,0
"62235",12.47,3,7169.82,85.3,0.99587,0,0,0,0,0,0,0,0
"1144235",12.47,1,7149.85,-34.7,0.9931,0,0,0,0,0,0,0,0
"1144234",12.47,1,7149.48,-34.7,0.99304,0,0,0,0,0,0,0,0
"39754",12.47,2,6990.67,-155.3,0.97099,0,0,0,0,0,0,0,0
"MDV201_1160486ELB_INT",12.47,2,6990.66,-155.3,0.97099,0,0,0,0,0,0,0,0
"1160486",12.47,2,6990.66,-155.3,0.97099,0,0,0,0,0,0,0,0
"1160476",12.47,2,6995.41,-155.3,0.97164,0,0,0,0,0,0,0,0
"1160473",12.47,2,6994.39,-155.3,0.9715,0,0,0,0,0,0,0,0
"8163",12.47,1,7200.13,-34.3,1.0001,2,7193.13,-154.5,0.99911,3,7194.49,85.4,0.9993
"8164",12.47,1,7197.82,-34.3,0.99976,2,7191.28,-154.5,0.99885,3,7188.6,85.4,0.99848
"103730",12.47,2,7088.26,-155.2,0.98454,0,0,0,0,0,0,0,0
"39610",12.47,2,7088.22,-155.2,0.98454,0,0,0,0,0,0,0,0
"835",12.47,1,7249.39,-33.8,1.0069,0,0,0,0,0,0,0,0
"842",12.47,1,7248.62,-33.8,1.0068,0,0,0,0,0,0,0,0
"39775",12.47,2,6997.7,-155.3,0.97196,0,0,0,0,0,0,0,0
"39760",12.47,2,6997.27,-155.3,0.9719,0,0,0,0,0,0,0,0
"15004",12.47,2,6993.27,-155.3,0.97135,0,0,0,0,0,0,0,0
"MDV201_1160480ELB_INT",12.47,2,6993.24,-155.3,0.97134,0,0,0,0,0,0,0,0
"1160480",12.47,2,6993.24,-155.3,0.97134,0,0,0,0,0,0,0,0
"1160492",12.47,1,7129.97,-34.2,0.99033,0,0,0,0,0,0,0,0
"MDV201_8088ELB_INT",12.47,1,7129.96,-34.2,0.99033,0,0,0,0,0,0,0,0
"8088",12.47,1,7129.96,-34.2,0.99033,0,0,0,0,0,0,0,0
"829",12.47,1,7176.87,-34.2,0.99685,2,7162.1,-154.9,0.9948,3,7242.12,85.6,1.0059
"834",12.47,1,7169.18,-34.2,0.99578,2,7152.74,-154.9,0.9935,3,7237.03,85.6,1.0052
"15005",12.47,2,6991.97,-155.3,0.97117,0,0,0,0,0,0,0,0
"MDV201_1160478ELB_INT",12.47,2,6991.95,-155.3,0.97116,0,0,0,0,0,0,0,0
"1160478",12.47,2,6991.95,-155.3,0.97116,0,0,0,0,0,0,0,0
"44582",12.47,1,7204,-34.3,1.0006,2,7196.79,-154.5,0.99962,3,7205.39,85.5,1.0008
"8160",12.47,1,7203.37,-34.3,1.0005,2,7196.12,-154.5,0.99952,3,7203.4,85.5,1.0005
"89783",12.47,3,7153.26,85.3,0.99357,0,0,0,0,0,0,0,0
"89791",12.47,3,7152.2,85.3,0.99342,0,0,0,0,0,0,0,0
"6584",12.47,1,7152.54,-34.6,0.99347,2,7184.24,-154.6,0.99787,3,7157.36,85.3,0.99414
"99422",12.47,1,7152.53,-34.6,0.99347,0,0,0,0,0,0,0,0
"8113",12.47,1,7193.67,-34.2,0.99918,2,7188.33,-154.8,0.99844,3,7250.59,85.6,1.0071
"8124",12.47,1,7192.5,-34.2,0.99902,2,7188.65,-154.8,0.99848,3,7249.87,85.6,1.007
"14880",12.47,1,7201.44,-34.0,1.0003,2,7169.07,-154.9,0.99576,3,7260.25,85.6,1.0084
"63707",12.47,1,7200.61,-34.0,1.0001,2,7165.58,-154.9,0.99528,3,7261.28,85.6,1.0086
"74449",12.47,3,7103.05,85.1,0.9866,0,0,0,0,0,0,0,0
"74450",12.47,3,7102.91,85.1,0.98658,0,0,0,0,0,0,0,0
"14989",12.47,2,7052.81,-155.2,0.97962,0,0,0,0,0,0,0,0
"100494",12.47,2,7052.81,-155.2,0.97962,0,0,0,0,0,0,0,0
"63683",12.47,1,7209.41,-34.1,1.0014,3,7258.18,85.7,1.0081,0,0,0,0
"107110",12.47,1,7209.4,-34.1,1.0014,3,7258.16,85.7,1.0081,0,0,0,0
"1144242",12.47,3,7249.51,85.6,1.0069,0,0,0,0,0,0,0,0
"8121",12.47,3,7248.94,85.6,1.0069,0,0,0,0,0,0,0,0
"63668",12.47,3,7223.94,85.5,1.0034,0,0,0,0,0,0,0,0
"63671",12.47,3,7223.26,85.5,1.0033,0,0,0,0,0,0,0,0
"89784",12.47,3,7158.31,85.3,0.99427,0,0,0,0,0,0,0,0
"89781",12.47,3,7156.33,85.3,0.994,0,0,0,0,0,0,0,0
"39734",12.47,1,7126.02,-34.7,0.98979,0,0,0,0,0,0,0,0
"39751",12.47,1,7125.52,-34.7,0.98972,0,0,0,0,0,0,0,0
"63657",12.47,1,7229.44,-34.0,1.0042,2,7218.27,-154.5,1.0026,3,7265.9,85.8,1.0092
"63658",12.47,1,7226.26,-34.0,1.0037,2,7214.62,-154.5,1.0021,3,7265.57,85.8,1.0092
"74445",12.47,2,7159.19,-154.6,0.99439,0,0,0,0,0,0,0,0
"74448",12.47,2,7157.73,-154.6,0.99419,0,0,0,0,0,0,0,0
"1012641",12.47,3,7201.92,85.5,1.0003,0,0,0,0,0,0,0,0
"1012643",12.47,3,7201.92,85.5,1.0003,0,0,0,0,0,0,0,0
"39570",12.47,1,7112.87,-34.2,0.98796,0,0,0,0,0,0,0,0
"39569",12.47,1,7112.68,-34.2,0.98793,0,0,0,0,0,0,0,0
"14858",12.47,1,7210.46,-34.2,1.0015,0,0,0,0,0,0,0,0
"14869",12.47,1,7210.46,-34.2,1.0015,0,0,0,0,0,0,0,0
"89796",12.47,3,7204.51,85.4,1.0007,0,0,0,0,0,0,0,0
"89790",12.47,3,7204.35,85.4,1.0007,0,0,0,0,0,0,0,0
"28271",12.47,3,7267.09,85.5,1.0094,0,0,0,0,0,0,0,0
"28272",12.47,3,7266.96,85.5,1.0094,0,0,0,0,0,0,0,0
"69478",12.47,1,7127.39,-34.2,0.98998,2,7100.81,-155.1,0.98628,3,7230.61,85.5,1.0043
"69477",12.47,1,7127.39,-34.2,0.98998,2,7100.8,-155.1,0.98628,3,7230.62,85.5,1.0043
"8175",12.47,3,7150.48,85.3,0.99318,0,0,0,0,0,0,0,0
"8176",12.47,3,7150.34,85.3,0.99316,0,0,0,0,0,0,0,0
"8184",12.47,1,7196.71,-34.0,0.9996,2,7147.69,-155.0,0.9928,3,7266.97,85.5,1.0094
"1144230",12.47,1,7196.71,-34.0,0.9996,0,0,0,0,0,0,0,0
"39595",12.47,1,7120.27,-34.2,0.98899,2,7083.37,-155.2,0.98386,3,7226.45,85.5,1.0037
"39582",12.47,1,7118.62,-34.2,0.98876,2,7078.35,-155.2,0.98316,3,7225.44,85.5,1.0036
"46385",12.47,2,7153.46,-154.6,0.9936,0,0,0,0,0,0,0,0
"46386",12.47,2,7152.62,-154.6,0.99348,0,0,0,0,0,0,0,0
"106884",12.47,3,7171.2,85.3,0.99606,0,0,0,0,0,0,0,0
"1160493",12.47,1,7132.8,-34.2,0.99073,0,0,0,0,0,0,0,0
"MDV201_8075ELB_INT",12.47,1,7132.77,-34.2,0.99072,0,0,0,0,0,0,0,0
"8075",12.47,1,7132.77,-34.2,0.99072,0,0,0,0,0,0,0,0
"69460",12.47,1,7129.48,-34.2,0.99027,0,0,0,0,0,0,0,0
"MDV201_107997ELB_INT",12.47,1,7129.48,-34.2,0.99027,0,0,0,0,0,0,0,0
"107997",12.47,1,7129.48,-34.2,0.99027,0,0,0,0,0,0,0,0
"8180",12.47,3,7150.28,85.3,0.99316,0,0,0,0,0,0,0,0
"1160461",12.47,1,7141.79,-34.2,0.99198,0,0,0,0,0,0,0,0
"8100",12.47,1,7140.28,-34.2,0.99177,0,0,0,0,0,0,0,0
"39776",12.47,3,7181.66,85.4,0.99751,0,0,0,0,0,0,0,0
"33824",12.47,3,7181.04,85.4,0.99743,0,0,0,0,0,0,0,0
"1140227",12.47,1,7202.47,-34.1,1.0004,0,0,0,0,0,0,0,0
"14873",12.47,1,7202.32,-34.1,1.0004,0,0,0,0,0,0,0,0
"1160488",12.47,2,7186.13,-154.5,0.99813,0,0,0,0,0,0,0,0
"MDV201_62249ELB_INT",12.47,2,7186.13,-154.5,0.99813,0,0,0,0,0,0,0,0
"62249",12.47,2,7186.13,-154.5,0.99813,0,0,0,0,0,0,0,0
"107106",12.47,2,7198.63,-154.6,0.99987,0,0,0,0,0,0,0,0
"63634",12.47,2,7197.56,-154.6,0.99972,0,0,0,0,0,0,0,0
"1160494",12.47,1,7132.74,-34.2,0.99072,0,0,0,0,0,0,0,0
"1160467",12.47,1,7132.27,-34.2,0.99065,0,0,0,0,0,0,0,0
"8185",12.47,1,7196.63,-34.0,0.99959,0,0,0,0,0,0,0,0
"796",12.47,1,7312.41,-33.4,1.0157,2,7300.12,-153.7,1.014,3,7315.05,86.6,1.016
"791",12.47,1,7305.75,-33.5,1.0148,2,7294.07,-153.8,1.0131,3,7310.96,86.6,1.0155
"62306",12.47,3,7153.56,85.3,0.99361,0,0,0,0,0,0,0,0
"62303",12.47,3,7153.26,85.3,0.99357,0,0,0,0,0,0,0,0
"14839",12.47,3,7264,85.5,1.009,0,0,0,0,0,0,0,0
"100478",12.47,3,7264,85.5,1.009,0,0,0,0,0,0,0,0
"58441",12.47,1,7119.12,-34.2,0.98883,2,7072.86,-155.2,0.9824,3,7206.83,85.4,1.001
"58446",12.47,1,7119.14,-34.2,0.98883,2,7072.72,-155.2,0.98238,3,7205.92,85.4,1.0009
"112112",12.47,2,7075.15,-155.2,0.98272,0,0,0,0,0,0,0,0
"52515",12.47,2,7074.74,-155.2,0.98266,0,0,0,0,0,0,0,0
"846",12.47,1,7189.57,-34.2,0.99861,2,7189.39,-154.8,0.99859,3,7249.55,85.6,1.0069
"98795",12.47,1,7189.57,-34.2,0.99861,2,7189.39,-154.8,0.99859,3,7249.55,85.6,1.0069
"39623",12.47,2,7121.25,-155.0,0.98912,0,0,0,0,0,0,0,0
"39602",12.47,2,7120.85,-155.0,0.98907,0,0,0,0,0,0,0,0
"56777",12.47,1,7145.28,-34.7,0.99246,2,7179.93,-154.6,0.99727,3,7151.93,85.3,0.99338
"56778",12.47,1,7145.53,-34.6,0.9925,2,7177.46,-154.6,0.99693,3,7150.52,85.3,0.99319
"44586",12.47,1,7191.67,-34.4,0.9989,2,7187.14,-154.5,0.99828,3,7173.97,85.3,0.99645
"62239",12.47,1,7190.25,-34.4,0.99871,2,7186.83,-154.5,0.99823,3,7173.03,85.3,0.99632
"46394",12.47,1,7147.48,-34.6,0.99277,2,7166.66,-154.6,0.99543,3,7143.27,85.2,0.99218
"46393",12.47,1,7147.48,-34.6,0.99277,2,7166.66,-154.6,0.99543,3,7143.27,85.2,0.99218
"1144254",12.47,2,7205.5,-154.5,1.0008,0,0,0,0,0,0,0,0
"28246",12.47,2,7205.45,-154.5,1.0008,0,0,0,0,0,0,0,0
"14996",12.47,2,6999.76,-155.3,0.97225,0,0,0,0,0,0,0,0
"39771",12.47,2,6999.53,-155.3,0.97222,0,0,0,0,0,0,0,0
"74432",12.47,1,7146.25,-34.6,0.9926,0,0,0,0,0,0,0,0
"108776",12.47,1,7146.25,-34.6,0.9926,0,0,0,0,0,0,0,0
"1160489",12.47,1,7252.72,-33.8,1.0074,0,0,0,0,0,0,0,0
"MDV201_795ELB_INT",12.47,1,7252.72,-33.8,1.0074,0,0,0,0,0,0,0,0
"795",12.47,1,7252.72,-33.8,1.0074,0,0,0,0,0,0,0,0
"14879",12.47,1,7202.47,-34.1,1.0004,2,7173.26,-154.9,0.99635,3,7259.02,85.6,1.0083
"8099",12.47,3,7250.84,85.6,1.0071,0,0,0,0,0,0,0,0
"8103",12.47,3,7250.43,85.6,1.0071,0,0,0,0,0,0,0,0
"1000983",12.47,1,7145.08,-34.7,0.99243,0,0,0,0,0,0,0,0
"56768",12.47,1,7143.67,-34.7,0.99224,0,0,0,0,0,0,0,0
"62265",12.47,1,7178.43,-34.5,0.99707,2,7185.31,-154.5,0.99802,3,7168,85.3,0.99562
"62262",12.47,1,7175.39,-34.5,0.99664,2,7185.25,-154.5,0.99801,3,7166.79,85.3,0.99545
"39752",12.47,2,6999.34,-155.3,0.97219,0,0,0,0,0,0,0,0
"1017350",12.47,2,6998.09,-155.3,0.97202,0,0,0,0,0,0,0,0
"1017348",12.47,2,6997.36,-155.3,0.97191,0,0,0,0,0,0,0,0
"56760",12.47,1,7147.93,-34.6,0.99283,0,0,0,0,0,0,0,0
"56764",12.47,1,7147.48,-34.6,0.99277,0,0,0,0,0,0,0,0
"39620",12.47,2,7127.88,-155.0,0.99004,0,0,0,0,0,0,0,0
"39617",12.47,2,7127.48,-155.0,0.98999,0,0,0,0,0,0,0,0
"39589",12.47,1,7116.11,-34.2,0.98841,0,0,0,0,0,0,0,0
"39580",12.47,1,7116.06,-34.2,0.9884,0,0,0,0,0,0,0,0
"74446",12.47,3,7102.4,85.1,0.9865,0,0,0,0,0,0,0,0
"74440",12.47,3,7102.02,85.1,0.98645,0,0,0,0,0,0,0,0
"58430",12.47,1,7149.16,-34.6,0.993,2,7165.88,-154.6,0.99532,3,7139.19,85.2,0.99162
"58429",12.47,1,7149.84,-34.6,0.99309,2,7165.53,-154.6,0.99527,3,7137.6,85.1,0.99139
"28213",12.47,1,7186.04,-34.2,0.99812,0,0,0,0,0,0,0,0
"21655",12.47,1,7184.6,-34.2,0.99792,0,0,0,0,0,0,0,0
"63666",12.47,1,7207.13,-34.1,1.0011,3,7256.63,85.7,1.0079,0,0,0,0
"28249",12.47,1,7205.15,-34.1,1.0008,3,7256.25,85.7,1.0079,0,0,0,0
"105409",12.47,1,7204.52,-34.1,1.0007,2,7179.59,-154.8,0.99723,3,7257.03,85.6,1.008
"52524",12.47,1,7203.69,-34.1,1.0006,2,7177.24,-154.8,0.9969,3,7257.84,85.6,1.0081
"74424",12.47,1,7128.03,-34.7,0.99007,0,0,0,0,0,0,0,0
"39733",12.47,1,7126.86,-34.7,0.9899,0,0,0,0,0,0,0,0
"8111",12.47,1,7194.85,-34.2,0.99935,2,7188.02,-154.8,0.9984,3,7251.31,85.6,1.0072
"836",12.47,2,7127.36,-155.0,0.98997,0,0,0,0,0,0,0,0
"837",12.47,2,7125.9,-155.0,0.98977,0,0,0,0,0,0,0,0
"1023346",12.47,1,7313,-33.4,1.0158,2,7300.71,-153.7,1.014,3,7315.57,86.6,1.0161
"MDV201_796USD_INT",12.47,1,7312.54,-33.4,1.0157,2,7300.21,-153.7,1.014,3,7315.12,86.6,1.0161
"28262",12.47,3,7191.17,85.4,0.99884,0,0,0,0,0,0,0,0
"28263",12.47,3,7191.13,85.4,0.99883,0,0,0,0,0,0,0,0
"52519",12.47,2,7052.51,-155.3,0.97958,0,0,0,0,0,0,0,0
"52521",12.47,2,7052.09,-155.3,0.97952,0,0,0,0,0,0,0,0
"28199",12.47,1,7189.53,-34.2,0.99861,2,7189.34,-154.8,0.99858,3,7249.53,85.6,1.0069
"28196",12.47,1,7189.48,-34.2,0.9986,2,7189.29,-154.8,0.99857,3,7249.5,85.6,1.0069
"28264",12.47,3,7191.23,85.4,0.99884,0,0,0,0,0,0,0,0
"28229",12.47,3,7253.48,85.7,1.0075,0,0,0,0,0,0,0,0
"52531",12.47,3,7253.24,85.7,1.0075,0,0,0,0,0,0,0,0
"14870",12.47,1,7208.81,-34.2,1.0013,0,0,0,0,0,0,0,0
"46398",12.47,3,7132.76,85.1,0.99072,0,0,0,0,0,0,0,0
"46399",12.47,3,7131.03,85.1,0.99048,0,0,0,0,0,0,0,0
"62264",12.47,1,7181.18,-34.4,0.99745,2,7185.44,-154.5,0.99804,3,7169.05,85.3,0.99576
"106895",12.47,2,7185.44,-154.5,0.99804,0,0,0,0,0,0,0,0
"1163442",12.47,3,7166.4,85.3,0.99539,0,0,0,0,0,0,0,0
"MDV201_1163443ELB_INT",12.47,3,7166.4,85.3,0.99539,0,0,0,0,0,0,0,0
"1163443",12.47,3,7166.4,85.3,0.99539,0,0,0,0,0,0,0,0
"99420",12.47,1,7155.51,-34.6,0.99388,2,7184.5,-154.6,0.99791,3,7158.66,85.3,0.99432
"14828",12.47,1,7194.87,-33.9,0.99935,2,7123.21,-155.2,0.9894,3,7274.5,85.5,1.0104
"1144249",12.47,3,7274.49,85.5,1.0104,0,0,0,0,0,0,0,0
"63726",12.47,1,7207.63,-34.2,1.0011,0,0,0,0,0,0,0,0
"8134",12.47,1,7178.75,-34.2,0.99711,0,0,0,0,0,0,0,0
"8131",12.47,1,7178.39,-34.2,0.99706,0,0,0,0,0,0,0,0
"62232",12.47,3,7168.42,85.3,0.99567,0,0,0,0,0,0,0,0
"62234",12.47,3,7167.82,85.3,0.99559,0,0,0,0,0,0,0,0
"841",12.47,1,7162.5,-34.2,0.99485,2,7144.6,-154.9,0.99237,3,7232.6,85.6,1.0046
"8083",12.47,1,7158.95,-34.2,0.99436,2,7140.51,-155.0,0.9918,3,7232.84,85.6,1.0046
"39579",12.47,2,7070.85,-155.2,0.98212,0,0,0,0,0,0,0,0
"52518",12.47,2,7068.34,-155.2,0.98177,0,0,0,0,0,0,0,0
"782",12.47,1,7290.59,-33.6,1.0126,2,7279.95,-153.9,1.0112,3,7302.37,86.4,1.0143
"783",12.47,1,7284.08,-33.6,1.0117,2,7273.76,-154.0,1.0103,3,7298.97,86.4,1.0138
"8132",12.47,1,7177.39,-34.2,0.99692,0,0,0,0,0,0,0,0
"8133",12.47,1,7177.36,-34.2,0.99692,0,0,0,0,0,0,0,0
"MDV201_C_1P032_1160490_INT",12.47,1,7139.51,-34.2,0.99166,0,0,0,0,0,0,0,0
"1160490",12.47,1,7139.51,-34.2,0.99166,0,0,0,0,0,0,0,0
"100477",12.47,3,7264.02,85.5,1.009,0,0,0,0,0,0,0,0
"28274",12.47,3,7263.82,85.5,1.0089,0,0,0,0,0,0,0,0
"63677",12.47,1,7206.49,-34.1,1.001,0,0,0,0,0,0,0,0
"63676",12.47,1,7206.29,-34.1,1.0009,0,0,0,0,0,0,0,0
"102184",12.47,3,7186.33,85.4,0.99816,0,0,0,0,0,0,0,0
"28266",12.47,3,7186.29,85.4,0.99816,0,0,0,0,0,0,0,0
"39772",12.47,3,7181.63,85.4,0.99751,0,0,0,0,0,0,0,0
"39773",12.47,3,7181.53,85.4,0.9975,0,0,0,0,0,0,0,0
"28241",12.47,1,7201.11,-34.1,1.0002,0,0,0,0,0,0,0,0
"28238",12.47,1,7200.33,-34.1,1.0001,0,0,0,0,0,0,0,0
"848",12.47,2,7133.42,-155.0,0.99081,0,0,0,0,0,0,0,0
"1144260",12.47,2,7133.4,-155.0,0.99081,0,0,0,0,0,0,0,0
"8095",12.47,3,7228.05,85.5,1.004,0,0,0,0,0,0,0,0
"8098",12.47,3,7227.84,85.5,1.0039,0,0,0,0,0,0,0,0
"849",12.47,2,7129.95,-155.0,0.99033,0,0,0,0,0,0,0,0
"850",12.47,2,7129.23,-155.0,0.99023,0,0,0,0,0,0,0,0
"63714",12.47,1,7207.64,-34.2,1.0011,2,7200.88,-154.5,1.0002,3,7216.72,85.6,1.0024
"63711",12.47,1,7205.05,-34.2,1.0008,2,7197.96,-154.5,0.99978,3,7208.71,85.5,1.0013
"1160484",12.47,2,6990.98,-155.3,0.97103,0,0,0,0,0,0,0,0
"1160485",12.47,2,6990.69,-155.3,0.97099,0,0,0,0,0,0,0,0
"8127",12.47,1,7178.07,-34.2,0.99702,0,0,0,0,0,0,0,0
"8128",12.47,1,7177.83,-34.2,0.99698,0,0,0,0,0,0,0,0
"8119",12.47,1,7155.03,-34.2,0.99381,0,0,0,0,0,0,0,0
"8117",12.47,1,7154.87,-34.2,0.99379,0,0,0,0,0,0,0,0
"63709",12.47,1,7204.87,-34.2,1.0007,0,0,0,0,0,0,0,0
"63710",12.47,1,7204.69,-34.2,1.0007,0,0,0,0,0,0,0,0
"21654",12.47,1,7183.63,-34.2,0.99779,0,0,0,0,0,0,0,0
"21653",12.47,1,7182.61,-34.2,0.99765,0,0,0,0,0,0,0,0
"63708",12.47,3,7249.11,85.6,1.0069,0,0,0,0,0,0,0,0
"63703",12.47,3,7248.32,85.6,1.0068,0,0,0,0,0,0,0,0
"58411",12.47,1,7149.78,-34.7,0.99309,2,7165.63,-154.6,0.99529,3,7135.81,85.1,0.99115
"106254",12.47,1,7149.78,-34.7,0.99309,0,0,0,0,0,0,0,0
"1012405",12.47,3,7205.4,85.4,1.0008,0,0,0,0,0,0,0,0
"1012407",12.47,3,7205.26,85.4,1.0008,0,0,0,0,0,0,0,0
"810",12.47,1,7197.5,-34.2,0.99971,2,7187.37,-154.8,0.99831,3,7254.17,85.6,1.0076
"1010731",12.47,1,7196.47,-34.2,0.99957,2,7187.59,-154.8,0.99834,3,7252.74,85.6,1.0074
"39745",12.47,3,7103.55,85.1,0.98666,0,0,0,0,0,0,0,0
"74453",12.47,3,7102.7,85.1,0.98655,0,0,0,0,0,0,0,0
"6580",12.47,1,7157.02,-34.6,0.99409,2,7184.63,-154.6,0.99793,3,7159.31,85.3,0.99441
"6582",12.47,1,7155.64,-34.6,0.9939,2,7184.54,-154.6,0.99791,3,7158.73,85.3,0.99433
"1012412",12.47,3,7205.15,85.4,1.0008,0,0,0,0,0,0,0,0
"69622",12.47,2,7059.2,-155.3,0.9805,0,0,0,0,0,0,0,0
"69620",12.47,2,7057.71,-155.3,0.9803,0,0,0,0,0,0,0,0
"63654",12.47,1,7224,-34.0,1.0034,2,7214.23,-154.5,1.002,3,7254.49,85.8,1.0076
"14891",12.47,1,7220.19,-34.1,1.0029,2,7211.52,-154.5,1.0017,3,7246.38,85.7,1.0065
"56756",12.47,2,6997.65,-155.3,0.97195,0,0,0,0,0,0,0,0
"1103250",12.47,2,6997.65,-155.3,0.97195,0,0,0,0,0,0,0,0
"6581",12.47,2,6998.1,-155.3,0.97202,0,0,0,0,0,0,0,0
"14876",12.47,3,7249.17,85.6,1.0069,0,0,0,0,0,0,0,0
"14872",12.47,3,7248.99,85.6,1.0069,0,0,0,0,0,0,0,0
"1144245",12.47,2,7092.47,-155.2,0.98513,0,0,0,0,0,0,0,0
"62301",12.47,2,7092.39,-155.2,0.98511,0,0,0,0,0,0,0,0
"806",12.47,2,7192.12,-154.6,0.99897,0,0,0,0,0,0,0,0
"809",12.47,2,7190.69,-154.6,0.99877,0,0,0,0,0,0,0,0
"28248",12.47,1,7201.15,-34.1,1.0002,0,0,0,0,0,0,0,0
"28242",12.47,1,7200.93,-34.1,1.0002,0,0,0,0,0,0,0,0
"74420",12.47,1,7146.11,-34.6,0.99258,2,7173.35,-154.6,0.99636,3,7147.76,85.2,0.99281
"74428",12.47,1,7146.28,-34.6,0.9926,2,7172.26,-154.6,0.99621,3,7146.99,85.2,0.9927
"14831",12.47,3,7272.64,85.5,1.0102,0,0,0,0,0,0,0,0
"14833",12.47,3,7269.59,85.5,1.0097,0,0,0,0,0,0,0,0
"28251",12.47,1,7203.68,-34.1,1.0006,3,7256.15,85.7,1.0079,0,0,0,0
"14893",12.47,1,7202.18,-34.1,1.0004,3,7256.04,85.7,1.0078,0,0,0,0
"74456",12.47,3,7123.44,85.1,0.98943,0,0,0,0,0,0,0,0
"46407",12.47,3,7119.8,85.1,0.98892,0,0,0,0,0,0,0,0
"94736",12.47,1,7112.68,-34.2,0.98793,0,0,0,0,0,0,0,0
"94737",12.47,1,7112.56,-34.2,0.98792,0,0,0,0,0,0,0,0
"89779",12.47,3,7204,85.4,1.0006,0,0,0,0,0,0,0,0
"89780",12.47,3,7203.79,85.4,1.0006,0,0,0,0,0,0,0,0
"100480",12.47,3,7249.6,85.6,1.007,0,0,0,0,0,0,0,0
"1000988",12.47,1,7156.87,-34.2,0.99407,0,0,0,0,0,0,0,0
"1000987",12.47,1,7156.84,-34.2,0.99407,0,0,0,0,0,0,0,0
"28287",12.47,1,7119.18,-34.2,0.98884,2,7072.01,-155.2,0.98228,3,7201.59,85.4,1.0003
"28288",12.47,1,7119.53,-34.2,0.98888,2,7071.69,-155.2,0.98224,3,7200.42,85.4,1.0001
"MDV201_1010732USD_INT",12.47,1,7196.45,-34.2,0.99957,2,7187.59,-154.8,0.99834,3,7252.71,85.6,1.0074
"1010732",12.47,1,7196.44,-34.2,0.99957,2,7187.6,-154.8,0.99834,3,7252.7,85.6,1.0074
"28226",12.47,1,7206.15,-34.1,1.0009,2,7186.87,-154.8,0.99824,3,7256.42,85.6,1.0079
"1144262",12.47,3,7256.41,85.6,1.0079,0,0,0,0,0,0,0,0
"1127424",12.47,1,7127.39,-34.2,0.98998,2,7100.8,-155.1,0.98628,3,7230.62,85.5,1.0043
"56751",12.47,1,7148.95,-34.6,0.99297,2,7183.1,-154.6,0.99771,3,7155.2,85.3,0.99384
"56762",12.47,1,7147.21,-34.6,0.99273,2,7182.57,-154.6,0.99764,3,7154.12,85.3,0.99369
"6572",12.47,2,7024.92,-155.3,0.97574,0,0,0,0,0,0,0,0
"1144253",12.47,2,7024.92,-155.3,0.97574,0,0,0,0,0,0,0,0
"28282",12.47,1,7118.62,-34.2,0.98876,0,0,0,0,0,0,0,0
"28281",12.47,1,7118.06,-34.2,0.98868,0,0,0,0,0,0,0,0
"94747",12.47,1,7112.2,-34.2,0.98787,0,0,0,0,0,0,0,0
"39588",12.47,2,7052,-155.3,0.9795,0,0,0,0,0,0,0,0
"39621",12.47,2,7121.83,-155.0,0.9892,0,0,0,0,0,0,0,0
"1010738",12.47,1,7145.11,-34.2,0.99244,0,0,0,0,0,0,0,0
"8143",12.47,1,7144.21,-34.2,0.99231,0,0,0,0,0,0,0,0
"1017349",12.47,2,6997.09,-155.3,0.97188,0,0,0,0,0,0,0,0
"63680",12.47,1,7209.85,-34.1,1.0014,2,7198.6,-154.7,0.99987,3,7258.47,85.7,1.0082
"63681",12.47,1,7208.79,-34.1,1.0013,2,7196.08,-154.7,0.99952,3,7257.91,85.7,1.0081
"58431",12.47,1,7150.41,-34.6,0.99317,2,7165.32,-154.6,0.99524,3,7136.2,85.1,0.9912
"106259",12.47,3,7136.19,85.1,0.9912,0,0,0,0,0,0,0,0
"823",12.47,1,7195.91,-34.2,0.99949,2,7187.73,-154.8,0.99836,3,7251.96,85.6,1.0073
"39618",12.47,2,7121.58,-155.0,0.98917,0,0,0,0,0,0,0,0
"1140226",12.47,3,7250.62,85.6,1.0071,0,0,0,0,0,0,0,0
"94731",12.47,3,7250.48,85.6,1.0071,0,0,0,0,0,0,0,0
"28186",12.47,1,7189.35,-34.2,0.99858,2,7189.14,-154.8,0.99855,3,7249.41,85.6,1.0069
"854",12.47,1,7189.32,-34.2,0.99858,2,7189.11,-154.8,0.99855,3,7249.38,85.6,1.0069
"28284",12.47,1,7119.19,-34.2,0.98884,2,7072.38,-155.2,0.98234,3,7203.8,85.4,1.0006
"28286",12.47,1,7119.2,-34.2,0.98884,2,7072.27,-155.2,0.98232,3,7203.09,85.4,1.0005
"8090",12.47,1,7160.9,-34.2,0.99463,3,7229.71,85.6,1.0042,0,0,0,0
"8092",12.47,1,7159.64,-34.2,0.99446,0,0,0,0,0,0,0,0
"808",12.47,1,7251.94,-33.8,1.0073,0,0,0,0,0,0,0,0
"814",12.47,1,7251.3,-33.8,1.0072,0,0,0,0,0,0,0,0
"14829",12.47,2,7114.23,-155.2,0.98815,0,0,0,0,0,0,0,0
"830",12.47,3,7228.41,85.5,1.004,0,0,0,0,0,0,0,0
"831",12.47,3,7226.91,85.5,1.0038,0,0,0,0,0,0,0,0
"1008229",12.47,2,7100.93,-155.1,0.9863,0,0,0,0,0,0,0,0
"1008227",12.47,2,7100.84,-155.1,0.98629,0,0,0,0,0,0,0,0
"28189",12.47,1,7189.39,-34.2,0.99859,2,7189.17,-154.8,0.99856,3,7249.44,85.6,1.0069
"785",12.47,1,7255.25,-33.8,1.0077,0,0,0,0,0,0,0,0
"790",12.47,1,7253.95,-33.8,1.0076,0,0,0,0,0,0,0,0
"1160477",12.47,2,6991.99,-155.3,0.97117,0,0,0,0,0,0,0,0
"MDV201_15005ELB_INT",12.47,2,6991.97,-155.3,0.97117,0,0,0,0,0,0,0,0
"1149717",12.47,1,7145.53,-34.6,0.9925,2,7177.45,-154.6,0.99693,3,7150.52,85.3,0.99319
"8205",12.47,2,6996.56,-155.3,0.9718,0,0,0,0,0,0,0,0
"8204",12.47,2,6996.5,-155.3,0.9718,0,0,0,0,0,0,0,0
"802",12.47,2,7196,-154.6,0.99951,0,0,0,0,0,0,0,0
"804",12.47,2,7195.68,-154.6,0.99946,0,0,0,0,0,0,0,0
"94733",12.47,2,7054.62,-155.3,0.97987,0,0,0,0,0,0,0,0
"94734",12.47,2,7054.55,-155.3,0.97986,0,0,0,0,0,0,0,0
"14875",12.47,1,7202.29,-34.1,1.0004,0,0,0,0,0,0,0,0
"1012406",12.47,3,7206.83,85.4,1.001,0,0,0,0,0,0,0,0
"39764",12.47,1,7171.12,-34.5,0.99605,2,7185.15,-154.5,0.998,3,7165.06,85.3,0.99521
"15011",12.47,1,7165.87,-34.5,0.99532,2,7185.01,-154.5,0.99798,3,7162.96,85.3,0.99492
"8087",12.47,3,7229.61,85.5,1.0042,0,0,0,0,0,0,0,0
"855",12.47,3,7228.22,85.5,1.004,0,0,0,0,0,0,0,0
"69623",12.47,1,7118.58,-34.2,0.98875,2,7073.96,-155.2,0.98255,3,7212.59,85.4,1.0018
"108027",12.47,3,7212.59,85.4,1.0018,0,0,0,0,0,0,0,0
"63638",12.47,1,7258.69,-33.8,1.0082,2,7250.1,-154.2,1.007,3,7284.84,86.1,1.0118
"1010727",12.47,1,7258.68,-33.8,1.0082,0,0,0,0,0,0,0,0
"39763",12.47,1,7172.21,-34.5,0.9962,2,7185.18,-154.5,0.998,3,7165.5,85.3,0.99527
"39762",12.47,1,7172.21,-34.5,0.9962,2,7185.18,-154.5,0.998,3,7165.5,85.3,0.99527
"89785",12.47,3,7203.64,85.4,1.0006,0,0,0,0,0,0,0,0
"1145433",12.47,3,7203.64,85.4,1.0006,0,0,0,0,0,0,0,0
"8108",12.47,3,7227.75,85.5,1.0039,0,0,0,0,0,0,0,0
"14881",12.47,1,7198.9,-34.1,0.99991,0,0,0,0,0,0,0,0
"14878",12.47,1,7198.78,-34.1,0.99989,0,0,0,0,0,0,0,0
"69485",12.47,2,7100.5,-155.1,0.98624,0,0,0,0,0,0,0,0
"69488",12.47,2,7100.37,-155.1,0.98622,0,0,0,0,0,0,0,0
"1160482",12.47,2,6990.33,-155.3,0.97094,0,0,0,0,0,0,0,0
"1160487",12.47,2,6990.1,-155.3,0.97091,0,0,0,0,0,0,0,0
"8169",12.47,2,7194.14,-154.5,0.99925,0,0,0,0,0,0,0,0
"8168",12.47,2,7193.96,-154.5,0.99922,0,0,0,0,0,0,0,0
"1163438",12.47,3,7166.4,85.3,0.99539,0,0,0,0,0,0,0,0
"MDV201_1163441ELB_INT",12.47,3,7166.4,85.3,0.99539,0,0,0,0,0,0,0,0
"1163441",12.47,3,7166.4,85.3,0.99539,0,0,0,0,0,0,0,0
"14851",12.47,2,7205.37,-154.5,1.0008,0,0,0,0,0,0,0,0
"14852",12.47,2,7205.29,-154.5,1.0008,0,0,0,0,0,0,0,0
"1160496",12.47,1,7130.64,-34.2,0.99043,0,0,0,0,0,0,0,0
"MDV201_8082ELB_INT",12.47,1,7130.62,-34.2,0.99043,0,0,0,0,0,0,0,0
"8082",12.47,1,7130.62,-34.2,0.99043,0,0,0,0,0,0,0,0
"14848",12.47,3,7249.88,85.6,1.007,0,0,0,0,0,0,0,0
"14871",12.47,3,7249.6,85.6,1.007,0,0,0,0,0,0,0,0
"1144267",12.47,2,7187.37,-154.8,0.99831,0,0,0,0,0,0,0,0
"1144266",12.47,2,7187.07,-154.8,0.99827,0,0,0,0,0,0,0,0
"28297",12.47,3,7266.9,85.5,1.0094,0,0,0,0,0,0,0,0
"28298",12.47,3,7265.5,85.5,1.0092,0,0,0,0,0,0,0,0
"69626",12.47,3,7212.56,85.4,1.0018,0,0,0,0,0,0,0,0
"46400",12.47,3,7131.02,85.1,0.99048,0,0,0,0,0,0,0,0
"46402",12.47,3,7130.93,85.1,0.99047,0,0,0,0,0,0,0,0
"63684",12.47,1,7207.56,-34.1,1.0011,2,7192.94,-154.7,0.99908,3,7257.42,85.7,1.008
"1144263",12.47,1,7207.55,-34.1,1.0011,0,0,0,0,0,0,0,0
"1144261",12.47,3,7232.05,85.6,1.0045,0,0,0,0,0,0,0,0
"833",12.47,3,7229.75,85.5,1.0042,0,0,0,0,0,0,0,0
"39615",12.47,2,7127.06,-155.0,0.98993,0,0,0,0,0,0,0,0
"39616",12.47,2,7126.95,-155.0,0.98992,0,0,0,0,0,0,0,0
"39611",12.47,1,7123.33,-34.2,0.98941,2,7092.7,-155.2,0.98516,3,7228.26,85.5,1.004
"103731",12.47,1,7123.32,-34.2,0.98941,0,0,0,0,0,0,0,0
"1160500",12.47,1,7139.58,-34.2,0.99167,0,0,0,0,0,0,0,0
"1160501",12.47,1,7139.51,-34.2,0.99166,0,0,0,0,0,0,0,0
"792",12.47,2,7195,-154.6,0.99937,0,0,0,0,0,0,0,0
"799",12.47,2,7194.96,-154.6,0.99936,0,0,0,0,0,0,0,0
"28293",12.47,3,7247.59,85.6,1.0067,0,0,0,0,0,0,0,0
"28294",12.47,3,7247.44,85.6,1.0067,0,0,0,0,0,0,0,0
"1000985",12.47,1,7156.87,-34.2,0.99407,0,0,0,0,0,0,0,0
"1000986",12.47,1,7156.34,-34.2,0.994,0,0,0,0,0,0,0,0
"8110",12.47,3,7249.42,85.6,1.0069,0,0,0,0,0,0,0,0
"8114",12.47,3,7249.03,85.6,1.0069,0,0,0,0,0,0,0,0
"103729",12.47,2,7078.33,-155.2,0.98316,0,0,0,0,0,0,0,0
"39584",12.47,2,7076.54,-155.2,0.98291,0,0,0,0,0,0,0,0
"56781",12.47,1,7145.79,-34.6,0.99253,2,7175.48,-154.6,0.99666,3,7149.27,85.3,0.99302
"1160504",12.47,1,7139.66,-34.2,0.99168,0,0,0,0,0,0,0,0
"1160505",12.47,1,7139.48,-34.2,0.99166,0,0,0,0,0,0,0,0
"62236",12.47,3,7169.69,85.3,0.99585,0,0,0,0,0,0,0,0
"62237",12.47,3,7166.49,85.3,0.99541,0,0,0,0,0,0,0,0
"103728",12.47,1,7118.61,-34.2,0.98876,0,0,0,0,0,0,0,0
"39590",12.47,1,7117.43,-34.2,0.98859,0,0,0,0,0,0,0,0
"MDV201_15008ELB_INT",12.47,2,6994.36,-155.3,0.9715,0,0,0,0,0,0,0,0
"15008",12.47,2,6994.36,-155.3,0.9715,0,0,0,0,0,0,0,0
"39599",12.47,2,7088.11,-155.2,0.98452,0,0,0,0,0,0,0,0
"39600",12.47,2,7088.11,-155.2,0.98452,0,0,0,0,0,0,0,0
"8162",12.47,2,7194.96,-154.5,0.99936,0,0,0,0,0,0,0,0
"44580",12.47,2,7194.55,-154.5,0.9993,0,0,0,0,0,0,0,0
"28233",12.47,3,7254.26,85.7,1.0076,0,0,0,0,0,0,0,0
"28228",12.47,3,7253.85,85.7,1.0075,0,0,0,0,0,0,0,0
"816",12.47,2,7188.93,-154.6,0.99852,0,0,0,0,0,0,0,0
"826",12.47,2,7188.78,-154.6,0.9985,0,0,0,0,0,0,0,0
"1160462",12.47,1,7129.61,-34.2,0.99028,0,0,0,0,0,0,0,0
"39576",12.47,1,7118.34,-34.2,0.98872,2,7075.98,-155.2,0.98284,3,7221.75,85.5,1.0031
"52517",12.47,1,7118.3,-34.2,0.98871,2,7075.16,-155.2,0.98272,3,7220.41,85.5,1.0029
"788",12.47,1,7298.32,-33.5,1.0137,2,7287.31,-153.8,1.0122,3,7306.4,86.5,1.0148
"94739",12.47,1,7112.43,-34.2,0.9879,0,0,0,0,0,0,0,0
"94742",12.47,1,7112.29,-34.2,0.98788,0,0,0,0,0,0,0,0
"106882",12.47,2,7188.12,-154.5,0.99841,0,0,0,0,0,0,0,0
"38389",12.47,2,7187.97,-154.5,0.99839,0,0,0,0,0,0,0,0
"63669",12.47,3,7223.81,85.5,1.0034,0,0,0,0,0,0,0,0
"63670",12.47,3,7223.79,85.5,1.0034,0,0,0,0,0,0,0,0
"8101",12.47,1,7139.67,-34.2,0.99168,0,0,0,0,0,0,0,0
"MDV201_1160504ELB_INT",12.47,1,7139.66,-34.2,0.99168,0,0,0,0,0,0,0,0
"1010728",12.47,1,7252.84,-33.8,1.0074,0,0,0,0,0,0,0,0
"28222",12.47,3,7254.83,85.6,1.0077,0,0,0,0,0,0,0,0
"28223",12.47,3,7254.08,85.6,1.0076,0,0,0,0,0,0,0,0
"94728",12.47,2,7065.86,-155.3,0.98143,0,0,0,0,0,0,0,0
"94740",12.47,2,7063.48,-155.3,0.9811,0,0,0,0,0,0,0,0
"8079",12.47,1,7145.12,-34.2,0.99244,2,7128.5,-155.0,0.99013,3,7232.01,85.6,1.0045
"8078",12.47,1,7142.48,-34.2,0.99207,2,7125.29,-155.0,0.98968,3,7231.58,85.6,1.0044
"1012411",12.47,3,7205.4,85.4,1.0008,0,0,0,0,0,0,0,0
"1012408",12.47,3,7205.34,85.4,1.0008,0,0,0,0,0,0,0,0
"1160458",12.47,1,7143.22,-34.2,0.99217,0,0,0,0,0,0,0,0
"62242",12.47,1,7187.5,-34.4,0.99833,2,7186.21,-154.5,0.99815,3,7171.21,85.3,0.99606
"1144243",12.47,3,7249.86,85.6,1.007,0,0,0,0,0,0,0,0
"69621",12.47,2,7061.35,-155.3,0.9808,0,0,0,0,0,0,0,0
"6568",12.47,2,6996.79,-155.3,0.97184,0,0,0,0,0,0,0,0
"MDV201_1160472ELB_INT",12.47,2,6996.75,-155.3,0.97183,0,0,0,0,0,0,0,0
"1160472",12.47,2,6996.75,-155.3,0.97183,0,0,0,0,0,0,0,0
"28301",12.47,3,7248.05,85.6,1.0067,0,0,0,0,0,0,0,0
"62311",12.47,3,7161.31,85.3,0.99469,0,0,0,0,0,0,0,0
"62312",12.47,3,7161.16,85.3,0.99467,0,0,0,0,0,0,0,0
"840",12.47,2,7128.76,-155.0,0.99017,0,0,0,0,0,0,0,0
"28280",12.47,1,7117.74,-34.2,0.98864,0,0,0,0,0,0,0,0
"28279",12.47,1,7117.48,-34.2,0.9886,0,0,0,0,0,0,0,0
"28232",12.47,1,7206.5,-34.1,1.001,2,7188.81,-154.8,0.99851,3,7256.76,85.6,1.0079
"14834",12.47,3,7267.46,85.5,1.0094,0,0,0,0,0,0,0,0
"28311",12.47,3,7204.8,85.4,1.0007,0,0,0,0,0,0,0,0
"89826",12.47,3,7204.69,85.4,1.0007,0,0,0,0,0,0,0,0
"63659",12.47,1,7221.75,-34.0,1.0031,2,7209.5,-154.6,1.0014,3,7265.08,85.8,1.0091
"44578",12.47,3,7161.53,85.3,0.99472,0,0,0,0,0,0,0,0
"44579",12.47,3,7161.53,85.3,0.99472,0,0,0,0,0,0,0,0
"28240",12.47,3,7256.06,85.7,1.0078,0,0,0,0,0,0,0,0
"28237",12.47,3,7255.99,85.7,1.0078,0,0,0,0,0,0,0,0
"56775",12.47,2,7175.25,-154.6,0.99662,0,0,0,0,0,0,0,0
"56776",12.47,2,7175.14,-154.6,0.99661,0,0,0,0,0,0,0,0
"69617",12.47,1,7118.39,-34.2,0.98873,2,7074.3,-155.2,0.9826,3,7214.54,85.4,1.0021
"MDV201_HN_2_793_ABC1023346_INT",12.47,1,7318.1,-33.4,1.0165,2,7305.34,-153.7,1.0147,3,7318.71,86.7,1.0165
"108774",12.47,2,7175.48,-154.6,0.99666,0,0,0,0,0,0,0,0
"1144237",12.47,2,7166.64,-154.6,0.99543,0,0,0,0,0,0,0,0
"1144236",12.47,2,7162.65,-154.6,0.99487,0,0,0,0,0,0,0,0
"8123",12.47,3,7248.75,85.6,1.0068,0,0,0,0,0,0,0,0
"14853",12.47,2,7056.87,-155.3,0.98018,0,0,0,0,0,0,0,0
"14854",12.47,2,7055.41,-155.3,0.97998,0,0,0,0,0,0,0,0
"MDV201_39754ELB_INT",12.47,2,6990.67,-155.3,0.97099,0,0,0,0,0,0,0,0
"58433",12.47,3,7135.35,85.1,0.99108,0,0,0,0,0,0,0,0
"1023343",12.47,3,7135.35,85.1,0.99108,0,0,0,0,0,0,0,0
"1010729",12.47,1,7252.88,-33.8,1.0074,0,0,0,0,0,0,0,0
"8140",12.47,3,7229.01,85.6,1.0041,0,0,0,0,0,0,0,0
"62231",12.47,3,7172.95,85.3,0.9963,0,0,0,0,0,0,0,0
"106883",12.47,3,7172.93,85.3,0.9963,0,0,0,0,0,0,0,0
"63645",12.47,1,7242.43,-33.9,1.006,2,7232.49,-154.4,1.0046,3,7273.98,86.0,1.0103
"63655",12.47,1,7236.42,-34.0,1.0051,2,7226.04,-154.4,1.0037,3,7269.91,85.9,1.0098
"94730",12.47,2,7054.37,-155.3,0.97983,0,0,0,0,0,0,0,0
"104355",12.47,2,7196.11,-154.5,0.99952,0,0,0,0,0,0,0,0
"1144241",12.47,1,7171.11,-34.5,0.99605,0,0,0,0,0,0,0,0
"63763",12.47,1,7171.1,-34.5,0.99605,0,0,0,0,0,0,0,0
"62308",12.47,3,7156.01,85.3,0.99395,0,0,0,0,0,0,0,0
"46406",12.47,3,7117.8,85.1,0.98864,0,0,0,0,0,0,0,0
"46404",12.47,3,7116.27,85.1,0.98843,0,0,0,0,0,0,0,0
"108028",12.47,3,7210.72,85.4,1.0016,0,0,0,0,0,0,0,0
"69653",12.47,3,7210.48,85.4,1.0015,0,0,0,0,0,0,0,0
"8165",12.47,1,7197.11,-34.3,0.99966,2,7190.74,-154.5,0.99878,3,7186.91,85.4,0.99824
"8130",12.47,1,7177.51,-34.2,0.99694,0,0,0,0,0,0,0,0
"861",12.47,1,7277.44,-33.7,1.0108,2,7267.44,-154.0,1.0094,3,7295.52,86.3,1.0133
"63685",12.47,1,7269.1,-33.7,1.0097,2,7259.52,-154.1,1.0083,3,7291.19,86.2,1.0127
"8129",12.47,1,7189.61,-34.2,0.99862,2,7189.44,-154.8,0.9986,3,7249.59,85.6,1.0069
"8151",12.47,1,7189.12,-34.2,0.99855,0,0,0,0,0,0,0,0
"14838",12.47,3,7263.57,85.5,1.0089,0,0,0,0,0,0,0,0
"14840",12.47,3,7263.24,85.5,1.0088,0,0,0,0,0,0,0,0
"62243",12.47,3,7167.34,85.3,0.99553,0,0,0,0,0,0,0,0
"62251",12.47,3,7167.06,85.3,0.99549,0,0,0,0,0,0,0,0
"860",12.47,3,7226.09,85.5,1.0037,0,0,0,0,0,0,0,0
"8153",12.47,3,7225.8,85.5,1.0036,0,0,0,0,0,0,0,0
"1160502",12.47,1,7139.51,-34.2,0.99166,0,0,0,0,0,0,0,0
"853",12.47,1,7189.29,-34.2,0.99857,2,7189.08,-154.8,0.99855,3,7249.35,85.6,1.0069
"1011953",12.47,1,7189.29,-34.2,0.99857,2,7189.08,-154.8,0.99855,3,7249.35,85.6,1.0069
"94735",12.47,2,7072.72,-155.2,0.98238,0,0,0,0,0,0,0,0
"52513",12.47,2,7072.39,-155.2,0.98234,0,0,0,0,0,0,0,0
"102186",12.47,3,7194.31,85.4,0.99927,0,0,0,0,0,0,0,0
"28277",12.47,3,7194.26,85.4,0.99926,0,0,0,0,0,0,0,0
"39587",12.47,2,7051.59,-155.3,0.97945,0,0,0,0,0,0,0,0
"39586",12.47,2,7051.38,-155.3,0.97942,0,0,0,0,0,0,0,0
"1160495",12.47,1,7130.61,-34.2,0.99042,0,0,0,0,0,0,0,0
"39756",12.47,2,6991,-155.3,0.97103,0,0,0,0,0,0,0,0
"MDV201_1160484ELB_INT",12.47,2,6990.98,-155.3,0.97103,0,0,0,0,0,0,0,0
"69484",12.47,1,7127.71,-34.2,0.99002,2,7101.49,-155.1,0.98638,3,7230.03,85.5,1.0042
"69481",12.47,1,7127.49,-34.2,0.98999,2,7100.93,-155.1,0.9863,3,7230.5,85.5,1.0043
"8145",12.47,1,7141.82,-34.2,0.99198,0,0,0,0,0,0,0,0
"MDV201_1160461ELB_INT",12.47,1,7141.79,-34.2,0.99198,0,0,0,0,0,0,0,0
"38388",12.47,1,7193.37,-34.4,0.99914,2,7188.12,-154.5,0.99841,3,7178.14,85.4,0.99703
"828",12.47,1,7245.86,-33.8,1.0064,0,0,0,0,0,0,0,0
"819",12.47,1,7245.65,-33.8,1.0064,0,0,0,0,0,0,0,0
"6577",12.47,2,7014.37,-155.3,0.97428,0,0,0,0,0,0,0,0
"8196",12.47,2,7014.18,-155.3,0.97425,0,0,0,0,0,0,0,0
"62304",12.47,3,7153.08,85.3,0.99354,0,0,0,0,0,0,0,0
"28250",12.47,1,7201.55,-34.1,1.0003,0,0,0,0,0,0,0,0
"8074",12.47,1,7138.52,-34.2,0.99152,2,7120.54,-155.0,0.98902,3,7231.09,85.5,1.0044
"14845",12.47,1,7195.9,-34.0,0.99949,2,7139.7,-155.1,0.99169,3,7269.63,85.5,1.0097
"14836",12.47,1,7195.45,-33.9,0.99943,2,7133.29,-155.1,0.9908,3,7271.48,85.5,1.01
"62250",12.47,1,7183.76,-34.4,0.99781,2,7185.67,-154.5,0.99807,3,7169.98,85.3,0.99589
"39574",12.47,1,7112.65,-34.2,0.98793,0,0,0,0,0,0,0,0
"1144257",12.47,3,7229,85.6,1.0041,0,0,0,0,0,0,0,0
"8094",12.47,3,7228.36,85.5,1.004,0,0,0,0,0,0,0,0
"39575",12.47,1,7118.4,-34.2,0.98873,2,7076.97,-155.2,0.98297,3,7223.25,85.5,1.0033
"39577",12.47,1,7115.04,-34.2,0.98826,0,0,0,0,0,0,0,0
"39571",12.47,1,7113.92,-34.2,0.98811,0,0,0,0,0,0,0,0
"8126",12.47,1,7191.06,-34.2,0.99882,2,7189.04,-154.8,0.99854,3,7249.73,85.6,1.007
"1140228",12.47,1,7128.64,-34.2,0.99015,2,7103.32,-155.1,0.98663,3,7229.54,85.5,1.0042
"28261",12.47,3,7186.33,85.4,0.99816,0,0,0,0,0,0,0,0
"1160469",12.47,2,6991.43,-155.3,0.97109,0,0,0,0,0,0,0,0
"MDV201_39759ELB_INT",12.47,2,6991.41,-155.3,0.97109,0,0,0,0,0,0,0,0
"39759",12.47,2,6991.41,-155.3,0.97109,0,0,0,0,0,0,0,0
"856",12.47,3,7227.51,85.5,1.0039,0,0,0,0,0,0,0,0
"857",12.47,3,7227.21,85.5,1.0038,0,0,0,0,0,0,0,0
"39628",12.47,3,7221.84,85.5,1.0031,0,0,0,0,0,0,0,0
"39629",12.47,3,7221.66,85.5,1.0031,0,0,0,0,0,0,0,0
"28244",12.47,1,7211.96,-34.2,1.0017,2,7205.5,-154.5,1.0008,3,7228.94,85.6,1.0041
"1103251",12.47,3,7251.61,85.6,1.0072,0,0,0,0,0,0,0,0
"8104",12.47,3,7249.91,85.6,1.007,0,0,0,0,0,0,0,0
"112113",12.47,1,7112.71,-34.2,0.98794,0,0,0,0,0,0,0,0
"6595",12.47,1,7151.99,-34.6,0.99339,0,0,0,0,0,0,0,0
"6597",12.47,1,7150.65,-34.6,0.99321,0,0,0,0,0,0,0,0
"56770",12.47,1,7141.59,-34.7,0.99195,0,0,0,0,0,0,0,0
"14841",12.47,1,7196.27,-34.0,0.99954,2,7143.33,-155.0,0.99219,3,7268.43,85.5,1.0096
"1144265",12.47,3,7257,85.6,1.008,0,0,0,0,0,0,0,0
"52532",12.47,3,7254.99,85.6,1.0077,0,0,0,0,0,0,0,0
"14864",12.47,1,7199.3,-34.1,0.99996,0,0,0,0,0,0,0,0
"14863",12.47,1,7199.01,-34.1,0.99992,0,0,0,0,0,0,0,0
"56766",12.47,1,7145.1,-34.7,0.99244,2,7181.94,-154.6,0.99755,3,7152.91,85.3,0.99352
"28285",12.47,1,7119.17,-34.2,0.98883,2,7072.54,-155.2,0.98236,3,7204.81,85.4,1.0007
"67893",12.47,1,7149.78,-34.7,0.99309,2,7165.64,-154.6,0.99529,3,7135.75,85.1,0.99114
"67891",12.47,1,7149.78,-34.7,0.99309,2,7165.64,-154.6,0.99529,3,7135.75,85.1,0.99114
"15001",12.47,2,7000.81,-155.3,0.97239,0,0,0,0,0,0,0,0
"14993",12.47,2,6999.86,-155.3,0.97226,0,0,0,0,0,0,0,0
"46388",12.47,2,7151.62,-154.7,0.99334,0,0,0,0,0,0,0,0
"46390",12.47,2,7151.35,-154.7,0.9933,0,0,0,0,0,0,0,0
"28234",12.47,1,7199.72,-34.1,1,0,0,0,0,0,0,0,0
"107107",12.47,1,7227.6,-34.0,1.0039,2,7216.78,-154.5,1.0024,3,7262.14,85.8,1.0087
"812",12.47,2,7188.04,-154.6,0.9984,0,0,0,0,0,0,0,0
"801",12.47,1,7200.25,-34.1,1.0001,2,7190.08,-154.8,0.99868,3,7255.29,85.7,1.0077
"14862",12.47,3,7249.67,85.6,1.007,0,0,0,0,0,0,0,0
"100479",12.47,3,7249.66,85.6,1.007,0,0,0,0,0,0,0,0
"74452",12.47,3,7103.21,85.1,0.98662,0,0,0,0,0,0,0,0
"1160479",12.47,2,6993.3,-155.3,0.97135,0,0,0,0,0,0,0,0
"MDV201_15004ELB_INT",12.47,2,6993.27,-155.3,0.97135,0,0,0,0,0,0,0,0
"21650",12.47,1,7180.9,-34.2,0.99741,0,0,0,0,0,0,0,0
"21649",12.47,1,7180.51,-34.2,0.99735,0,0,0,0,0,0,0,0
"14850",12.47,3,7248.58,85.6,1.0068,0,0,0,0,0,0,0,0
"52525",12.47,3,7248.55,85.6,1.0068,0,0,0,0,0,0,0,0
"58438",12.47,3,7107.42,85.1,0.9872,0,0,0,0,0,0,0,0
"106261",12.47,3,7107.42,85.1,0.9872,0,0,0,0,0,0,0,0
"8135",12.47,1,7178.54,-34.2,0.99708,0,0,0,0,0,0,0,0
"8136",12.47,1,7178.28,-34.2,0.99705,0,0,0,0,0,0,0,0
"39630",12.47,3,7225.78,85.5,1.0036,0,0,0,0,0,0,0,0
"63667",12.47,3,7224.8,85.5,1.0035,0,0,0,0,0,0,0,0
"100475",12.47,3,7267.46,85.5,1.0094,0,0,0,0,0,0,0,0
"39743",12.47,3,7106.8,85.1,0.98712,0,0,0,0,0,0,0,0
"39744",12.47,3,7105.21,85.1,0.9869,0,0,0,0,0,0,0,0
"88677",12.47,1,7149.78,-34.7,0.99309,2,7165.63,-154.6,0.99529,3,7135.8,85.1,0.99114
"39605",12.47,1,7121.89,-34.2,0.98921,2,7088.26,-155.2,0.98454,3,7227.43,85.5,1.0039
"6569",12.47,2,6995.44,-155.3,0.97165,0,0,0,0,0,0,0,0
"MDV201_1160476ELB_INT",12.47,2,6995.41,-155.3,0.97164,0,0,0,0,0,0,0,0
"63678",12.47,1,7206.04,-34.1,1.0009,0,0,0,0,0,0,0,0
"62246",12.47,3,7166.31,85.3,0.99538,0,0,0,0,0,0,0,0
"62248",12.47,3,7166.19,85.3,0.99537,0,0,0,0,0,0,0,0
"28267",12.47,3,7186.19,85.4,0.99814,0,0,0,0,0,0,0,0
"62298",12.47,2,7102.24,-155.2,0.98648,0,0,0,0,0,0,0,0
"1144244",12.47,2,7102.24,-155.2,0.98648,0,0,0,0,0,0,0,0
"62233",12.47,3,7168.98,85.3,0.99575,0,0,0,0,0,0,0,0
"89813",12.47,3,7151.78,85.3,0.99336,0,0,0,0,0,0,0,0
"46408",12.47,3,7117.79,85.1,0.98864,0,0,0,0,0,0,0,0
"62247",12.47,3,7164.47,85.3,0.99513,0,0,0,0,0,0,0,0
"6571",12.47,2,7005.29,-155.3,0.97302,0,0,0,0,0,0,0,0
"15006",12.47,2,7002.92,-155.3,0.97269,0,0,0,0,0,0,0,0
"39572",12.47,1,7112.9,-34.2,0.98796,0,0,0,0,0,0,0,0
"94727",12.47,1,7112.71,-34.2,0.98794,0,0,0,0,0,0,0,0
"44585",12.47,1,7194.34,-34.4,0.99928,2,7188.76,-154.5,0.9985,3,7180.46,85.4,0.99735
"63672",12.47,3,7222.66,85.5,1.0032,0,0,0,0,0,0,0,0
"MDV201_8076ELB_INT",12.47,1,7132.24,-34.2,0.99065,0,0,0,0,0,0,0,0
"8076",12.47,1,7132.24,-34.2,0.99065,0,0,0,0,0,0,0,0
"62297",12.47,2,7092.5,-155.2,0.98513,0,0,0,0,0,0,0,0
"1149715",12.47,2,7092.5,-155.2,0.98513,0,0,0,0,0,0,0,0
"28278",12.47,3,7194.26,85.4,0.99926,0,0,0,0,0,0,0,0
"14865",12.47,3,7253.57,85.6,1.0075,0,0,0,0,0,0,0,0
"14866",12.47,3,7253.23,85.6,1.0075,0,0,0,0,0,0,0,0
"847",12.47,1,7189.56,-34.2,0.99861,2,7189.38,-154.8,0.99859,3,7249.54,85.6,1.0069
"28208",12.47,1,7189.54,-34.2,0.99861,2,7189.36,-154.8,0.99858,3,7249.53,85.6,1.0069
"1160455",12.47,1,7140.12,-34.2,0.99174,0,0,0,0,0,0,0,0
"1160456",12.47,1,7139.82,-34.2,0.9917,0,0,0,0,0,0,0,0
"56782",12.47,1,7138.65,-34.7,0.99154,0,0,0,0,0,0,0,0
"56783",12.47,1,7138.31,-34.7,0.99149,0,0,0,0,0,0,0,0
"8080",12.47,1,7149.51,-34.2,0.99305,2,7131.54,-155.0,0.99055,3,7232.59,85.6,1.0046
"1010740",12.47,1,7149.51,-34.2,0.99305,0,0,0,0,0,0,0,0
"93587",12.47,1,7172.18,-34.5,0.9962,2,7185.19,-154.5,0.998,3,7165.48,85.3,0.99527
"62261",12.47,1,7172.11,-34.5,0.99619,2,7185.21,-154.5,0.99801,3,7165.47,85.3,0.99527
"63662",12.47,1,7217.11,-34.1,1.0024,2,7205.37,-154.6,1.0008,3,7263.19,85.8,1.0088
"63663",12.47,1,7214.45,-34.1,1.0021,2,7202.9,-154.7,1.0005,3,7261.61,85.7,1.0086
"14849",12.47,3,7248.7,85.6,1.0068,0,0,0,0,0,0,0,0
"89812",12.47,3,7161.53,85.3,0.99472,0,0,0,0,0,0,0,0
"99414",12.47,2,7007.69,-155.3,0.97335,0,0,0,0,0,0,0,0
"6570",12.47,2,7007.01,-155.3,0.97326,0,0,0,0,0,0,0,0
"844",12.47,1,7247.92,-33.8,1.0067,0,0,0,0,0,0,0,0
"58439",12.47,3,7107.2,85.1,0.98717,0,0,0,0,0,0,0,0
"39741",12.47,3,7106.95,85.1,0.98714,0,0,0,0,0,0,0,0
"1144259",12.47,1,7162.5,-34.2,0.99485,3,7232.59,85.6,1.0046,0,0,0,0
"44577",12.47,3,7150.98,85.3,0.99325,0,0,0,0,0,0,0,0
"8190",12.47,3,7150.73,85.3,0.99322,0,0,0,0,0,0,0,0
"39755",12.47,2,6990.34,-155.3,0.97094,0,0,0,0,0,0,0,0
"MDV201_1160482ELB_INT",12.47,2,6990.33,-155.3,0.97094,0,0,0,0,0,0,0,0
"62252",12.47,3,7161.6,85.3,0.99473,0,0,0,0,0,0,0,0
"89789",12.47,3,7160.08,85.3,0.99452,0,0,0,0,0,0,0,0
"14992",12.47,2,6998.38,-155.3,0.97206,0,0,0,0,0,0,0,0
"1144233",12.47,1,7126.73,-34.2,0.98988,2,7099.67,-155.1,0.98613,3,7229.71,85.5,1.0042
"69487",12.47,1,7124.76,-34.2,0.98961,2,7095.94,-155.2,0.98561,3,7228.92,85.5,1.0041
"89797",12.47,3,7203.6,85.4,1.0006,0,0,0,0,0,0,0,0
"39749",12.47,3,7106.75,85.1,0.98711,0,0,0,0,0,0,0,0
"803",12.47,2,7194.32,-154.6,0.99927,0,0,0,0,0,0,0,0
"805",12.47,2,7194.31,-154.6,0.99927,0,0,0,0,0,0,0,0
"62295",12.47,2,7102.17,-155.2,0.98647,0,0,0,0,0,0,0,0
"62296",12.47,2,7102.15,-155.2,0.98647,0,0,0,0,0,0,0,0
"52516",12.47,2,7074.18,-155.2,0.98259,0,0,0,0,0,0,0,0
"6575",12.47,2,7007.69,-155.3,0.97335,0,0,0,0,0,0,0,0
"28239",12.47,3,7255.58,85.7,1.0078,0,0,0,0,0,0,0,0
"28235",12.47,3,7254.71,85.7,1.0077,0,0,0,0,0,0,0,0
"56772",12.47,1,7147.26,-34.6,0.99274,0,0,0,0,0,0,0,0
"14857",12.47,1,7210.87,-34.2,1.0016,2,7204.63,-154.5,1.0007,3,7226.63,85.6,1.0038
"51012",12.47,1,7209.59,-34.2,1.0014,2,7203.12,-154.5,1.0005,3,7222.74,85.6,1.0032
"1148537",12.47,3,7166.4,85.3,0.99539,0,0,0,0,0,0,0,0
"1149722",12.47,3,7166.4,85.3,0.99539,0,0,0,0,0,0,0,0
"62310",12.47,3,7154.23,85.3,0.9937,0,0,0,0,0,0,0,0
"MDV201_107109USD_INT",12.47,1,7221.46,-34.0,1.003,2,7209.18,-154.6,1.0013,3,7264.81,85.8,1.0091
"107109",12.47,1,7221.37,-34.0,1.003,2,7209.12,-154.6,1.0013,3,7264.78,85.8,1.0091
"58426",12.47,1,7150.32,-34.6,0.99316,2,7165.32,-154.6,0.99524,3,7136.07,85.1,0.99118
"88656",12.47,1,7150.24,-34.6,0.99315,2,7165.36,-154.6,0.99525,3,7136,85.1,0.99117
"1144258",12.47,1,7162.36,-34.2,0.99483,3,7232.13,85.6,1.0045,0,0,0,0
"39753",12.47,2,6999.22,-155.3,0.97217,0,0,0,0,0,0,0,0
"39765",12.47,3,7183.26,85.4,0.99774,0,0,0,0,0,0,0,0
"8179",12.47,3,7150.67,85.3,0.99321,0,0,0,0,0,0,0,0
"56784",12.47,1,7137.09,-34.7,0.99132,0,0,0,0,0,0,0,0
"56785",12.47,1,7134.93,-34.7,0.99102,0,0,0,0,0,0,0,0
"858",12.47,3,7226.74,85.5,1.0038,0,0,0,0,0,0,0,0
"8097",12.47,1,7158.72,-34.2,0.99433,0,0,0,0,0,0,0,0
"102185",12.47,1,7119.17,-34.2,0.98883,0,0,0,0,0,0,0,0
"39613",12.47,1,7122.73,-34.2,0.98933,0,0,0,0,0,0,0,0
"28291",12.47,3,7196.07,85.4,0.99952,0,0,0,0,0,0,0,0
"102187",12.47,3,7196.06,85.4,0.99951,0,0,0,0,0,0,0,0
"39625",12.47,2,7124.55,-155.0,0.98958,0,0,0,0,0,0,0,0
"1160454",12.47,1,7140.14,-34.2,0.99175,0,0,0,0,0,0,0,0
"MDV201_1160466ELB_INT",12.47,1,7132.22,-34.2,0.99065,0,0,0,0,0,0,0,0
"1160466",12.47,1,7132.22,-34.2,0.99065,0,0,0,0,0,0,0,0
"28193",12.47,1,7189.45,-34.2,0.9986,2,7189.24,-154.8,0.99857,3,7249.48,85.6,1.0069
"797",12.47,2,7187.03,-154.6,0.99826,0,0,0,0,0,0,0,0
"789",12.47,2,7186.63,-154.6,0.9982,0,0,0,0,0,0,0,0
"28225",12.47,1,7204.82,-34.1,1.0007,0,0,0,0,0,0,0,0
"39565",12.47,1,7204.52,-34.1,1.0007,0,0,0,0,0,0,0,0
"88660",12.47,2,7152.05,-154.6,0.9934,0,0,0,0,0,0,0,0
"88665",12.47,2,7151.87,-154.7,0.99338,0,0,0,0,0,0,0,0
"8072",12.47,1,7134.47,-34.2,0.99096,2,7115.69,-155.1,0.98835,3,7230.59,85.5,1.0043
"1160465",12.47,1,7131.32,-34.2,0.99052,0,0,0,0,0,0,0,0
"MDV201_8077ELB_INT",12.47,1,7131.3,-34.2,0.99052,0,0,0,0,0,0,0,0
"8077",12.47,1,7131.3,-34.2,0.99052,0,0,0,0,0,0,0,0
"63718",12.47,1,7206.54,-34.2,1.001,0,0,0,0,0,0,0,0
"MDV201_1160491ELB_INT",12.47,1,7129.95,-34.2,0.99033,0,0,0,0,0,0,0,0
"1160491",12.47,1,7129.95,-34.2,0.99033,0,0,0,0,0,0,0,0
"39601",12.47,1,7204.45,-34.1,1.0007,0,0,0,0,0,0,0,0
"14995",12.47,2,7000.39,-155.3,0.97234,0,0,0,0,0,0,0,0
"8186",12.47,1,7196.47,-34.0,0.99957,0,0,0,0,0,0,0,0
"63704",12.47,3,7248.28,85.6,1.0068,0,0,0,0,0,0,0,0
"107782",12.47,1,7149.78,-34.7,0.99309,2,7165.64,-154.6,0.99529,3,7135.75,85.1,0.99114
"1160464",12.47,1,7131.28,-34.2,0.99052,0,0,0,0,0,0,0,0
"52526",12.47,1,7204.55,-34.1,1.0007,2,7179.62,-154.8,0.99723,3,7257.01,85.6,1.008
"1144232",12.47,1,7128.71,-34.2,0.99016,2,7103.46,-155.1,0.98665,3,7229.57,85.5,1.0042
"MDV201_1140228USD_INT",12.47,1,7128.66,-34.2,0.99015,2,7103.35,-155.1,0.98664,3,7229.53,85.5,1.0042
"8147",12.47,1,7139.51,-34.2,0.99166,0,0,0,0,0,0,0,0
"MDV201_1160502ELB_INT",12.47,1,7139.51,-34.2,0.99166,0,0,0,0,0,0,0,0
"1160475",12.47,2,6995.48,-155.3,0.97165,0,0,0,0,0,0,0,0
"MDV201_6569ELB_INT",12.47,2,6995.44,-155.3,0.97165,0,0,0,0,0,0,0,0
"46405",12.47,3,7114.04,85.1,0.98812,0,0,0,0,0,0,0,0
"52514",12.47,2,7072.12,-155.2,0.9823,0,0,0,0,0,0,0,0
"100476",12.47,3,7266.9,85.5,1.0094,0,0,0,0,0,0,0,0
"89778",12.47,2,7114.23,-155.2,0.98815,0,0,0,0,0,0,0,0
"1144248",12.47,2,7114.23,-155.2,0.98815,0,0,0,0,0,0,0,0
"99618",12.47,1,7189.11,-34.2,0.99855,0,0,0,0,0,0,0,0
"8152",12.47,1,7187.62,-34.2,0.99834,0,0,0,0,0,0,0,0
"52530",12.47,3,7253.75,85.6,1.0075,0,0,0,0,0,0,0,0
"52527",12.47,3,7252.92,85.6,1.0074,0,0,0,0,0,0,0,0
"14847",12.47,3,7250.62,85.6,1.0071,0,0,0,0,0,0,0,0
"798",12.47,1,7252.88,-33.8,1.0074,0,0,0,0,0,0,0,0
"62258",12.47,3,7166.83,85.3,0.99545,0,0,0,0,0,0,0,0
"58436",12.47,3,7112.27,85.1,0.98788,0,0,0,0,0,0,0,0
"58437",12.47,3,7110.15,85.1,0.98758,0,0,0,0,0,0,0,0
"63664",12.47,1,7213.14,-34.1,1.0019,2,7201.81,-154.7,1.0003,3,7261.34,85.7,1.0086
"63642",12.47,1,7208.55,-34.1,1.0012,2,7197.7,-154.7,0.99974,3,7259.2,85.7,1.0083
"28299",12.47,3,7247.79,85.6,1.0067,0,0,0,0,0,0,0,0
"46403",12.47,3,7127.16,85.1,0.98994,0,0,0,0,0,0,0,0
"74455",12.47,3,7125.36,85.1,0.98969,0,0,0,0,0,0,0,0
"58420",12.47,1,7150.15,-34.6,0.99314,2,7165.4,-154.6,0.99526,3,7135.97,85.1,0.99117
"106257",12.47,2,7165.4,-154.6,0.99526,0,0,0,0,0,0,0,0
"28243",12.47,1,7200.85,-34.1,1.0002,0,0,0,0,0,0,0,0
"99617",12.47,1,7134.46,-34.2,0.99096,0,0,0,0,0,0,0,0
"39622",12.47,2,7122.55,-155.0,0.9893,0,0,0,0,0,0,0,0
"74444",12.47,2,7159.97,-154.6,0.9945,0,0,0,0,0,0,0,0
"827",12.47,1,7250.32,-33.8,1.0071,0,0,0,0,0,0,0,0
"62253",12.47,1,7172.11,-34.5,0.99619,2,7185.21,-154.5,0.99801,3,7165.47,85.3,0.99527
"62257",12.47,1,7172.11,-34.5,0.99619,2,7185.21,-154.5,0.99801,3,7165.47,85.3,0.99527
"8115",12.47,3,7248.81,85.6,1.0068,0,0,0,0,0,0,0,0
"8116",12.47,3,7248.73,85.6,1.0068,0,0,0,0,0,0,0,0
"69490",12.47,1,7130.52,-34.2,0.99041,2,7107.33,-155.1,0.98719,3,7229.99,85.5,1.0042
"52523",12.47,3,7251.71,85.6,1.0072,0,0,0,0,0,0,0,0
"8073",12.47,1,7133.47,-34.2,0.99082,0,0,0,0,0,0,0,0
"1160452",12.47,3,7203.55,85.4,1.0006,0,0,0,0,0,0,0,0
"MDV201_1145434ELB_INT",12.47,3,7203.55,85.4,1.0006,0,0,0,0,0,0,0,0
"1145434",12.47,3,7203.55,85.4,1.0006,0,0,0,0,0,0,0,0
"MDV201_1144239USD_INT",12.47,1,7175.28,-34.5,0.99663,2,7185.2,-154.5,0.99801,3,7166.74,85.3,0.99544
"1144239",12.47,1,7175.25,-34.5,0.99662,2,7185.21,-154.5,0.99801,3,7166.72,85.3,0.99544
"1160463",12.47,1,7129.62,-34.2,0.99029,0,0,0,0,0,0,0,0
"MDV201_1160494ELB_INT",12.47,1,7132.74,-34.2,0.99072,0,0,0,0,0,0,0,0
"63713",12.47,1,7205.22,-34.2,1.0008,0,0,0,0,0,0,0,0
"MDV201_8102ELB_INT",12.47,1,7140.13,-34.2,0.99175,0,0,0,0,0,0,0,0
"8102",12.47,1,7140.13,-34.2,0.99175,0,0,0,0,0,0,0,0
"46401",12.47,3,7128.94,85.1,0.99019,0,0,0,0,0,0,0,0
"8177",12.47,1,7199.61,-34.0,1,2,7161.38,-154.9,0.9947,3,7262.51,85.6,1.0087
"8178",12.47,1,7198.46,-34.0,0.99985,2,7156.53,-155.0,0.99402,3,7264.15,85.6,1.009
"94726",12.47,2,7073.24,-155.2,0.98245,0,0,0,0,0,0,0,0
"99417",12.47,1,7160.74,-34.6,0.99461,0,0,0,0,0,0,0,0
"6579",12.47,1,7160.7,-34.6,0.9946,0,0,0,0,0,0,0,0
"56755",12.47,1,7148.65,-34.6,0.99293,0,0,0,0,0,0,0,0
"6576",12.47,2,7004.66,-155.3,0.97293,0,0,0,0,0,0,0,0
"6574",12.47,2,6999.51,-155.3,0.97221,0,0,0,0,0,0,0,0
"39619",12.47,2,7121.46,-155.0,0.98915,0,0,0,0,0,0,0,0
"1012409",12.47,3,7205.12,85.4,1.0008,0,0,0,0,0,0,0,0
"28312",12.47,3,7204.94,85.4,1.0007,0,0,0,0,0,0,0,0
"1144255",12.47,1,7197.46,-34.0,0.99971,0,0,0,0,0,0,0,0
"8174",12.47,1,7197.34,-34.0,0.99969,0,0,0,0,0,0,0,0
"14990",12.47,2,7052.57,-155.2,0.97958,0,0,0,0,0,0,0,0
"1010739",12.47,1,7149.42,-34.2,0.99304,0,0,0,0,0,0,0,0
"1010733",12.47,3,7251.95,85.6,1.0073,0,0,0,0,0,0,0,0
"63716",12.47,3,7201.93,85.5,1.0003,0,0,0,0,0,0,0,0
"63719",12.47,3,7201.77,85.5,1.0003,0,0,0,0,0,0,0,0
"28224",12.47,1,7205.46,-34.1,1.0008,2,7184.6,-154.8,0.99792,3,7256.53,85.6,1.0079
"28220",12.47,1,7205.15,-34.1,1.0008,2,7182.96,-154.8,0.99769,3,7256.63,85.6,1.0079
"6594",12.47,1,7150.77,-34.6,0.99322,2,7183.64,-154.6,0.99779,3,7156.32,85.3,0.99399
"21652",12.47,1,7177.33,-34.2,0.99691,0,0,0,0,0,0,0,0
"1144264",12.47,1,7207.22,-34.1,1.0011,0,0,0,0,0,0,0,0
"63675",12.47,1,7207.09,-34.1,1.001,0,0,0,0,0,0,0,0
"63640",12.47,2,7199.72,-154.6,1,0,0,0,0,0,0,0,0
"63636",12.47,2,7197.64,-154.6,0.99973,0,0,0,0,0,0,0,0
"58415",12.47,1,7149.86,-34.7,0.9931,2,7165.58,-154.6,0.99528,3,7135.86,85.1,0.99115
"88675",12.47,1,7149.81,-34.7,0.99309,2,7165.61,-154.6,0.99528,3,7135.83,85.1,0.99115
"1144252",12.47,2,7024.79,-155.3,0.97572,0,0,0,0,0,0,0,0
"800",12.47,1,7204.37,-34.1,1.0007,2,7193.94,-154.7,0.99922,3,7257.25,85.7,1.008
"8084",12.47,1,7156.18,-34.2,0.99397,2,7137.19,-155.0,0.99134,3,7233.04,85.6,1.0046
"98800",12.47,1,7185.38,-34.2,0.99803,0,0,0,0,0,0,0,0
"851",12.47,1,7185.16,-34.2,0.998,0,0,0,0,0,0,0,0
"58418",12.47,1,7149.25,-34.7,0.99301,0,0,0,0,0,0,0,0
"58422",12.47,1,7149.08,-34.7,0.99299,0,0,0,0,0,0,0,0
"69491",12.47,2,7128.41,-155.0,0.99012,0,0,0,0,0,0,0,0
"99419",12.47,1,7155.64,-34.6,0.9939,0,0,0,0,0,0,0,0
"39757",12.47,2,7085.23,-155.2,0.98412,0,0,0,0,0,0,0,0
"8155",12.47,3,7225.62,85.5,1.0036,0,0,0,0,0,0,0,0
"8156",12.47,3,7225.54,85.5,1.0036,0,0,0,0,0,0,0,0
"1160497",12.47,1,7156.81,-34.2,0.99406,0,0,0,0,0,0,0,0
"MDV201_8159ELB_INT",12.47,1,7156.81,-34.2,0.99406,0,0,0,0,0,0,0,0
"8159",12.47,1,7156.81,-34.2,0.99406,0,0,0,0,0,0,0,0
"825",12.47,2,7186.64,-154.8,0.99821,0,0,0,0,0,0,0,0
"39591",12.47,1,7120.38,-34.2,0.989,0,0,0,0,0,0,0,0
"39592",12.47,1,7120.23,-34.2,0.98898,0,0,0,0,0,0,0,0
"14882",12.47,3,7253.13,85.6,1.0074,0,0,0,0,0,0,0,0
"14867",12.47,3,7252.98,85.6,1.0074,0,0,0,0,0,0,0,0
"103746",12.47,3,7184.04,85.4,0.99784,0,0,0,0,0,0,0,0
"107108",12.47,2,7209.47,-154.6,1.0014,0,0,0,0,0,0,0,0
"1023342",12.47,3,7135.22,85.1,0.99106,0,0,0,0,0,0,0,0
"1160470",12.47,2,6991.4,-155.3,0.97109,0,0,0,0,0,0,0,0
"1160483",12.47,2,6991.01,-155.3,0.97103,0,0,0,0,0,0,0,0
"74437",12.47,3,7101.59,85.1,0.98639,0,0,0,0,0,0,0,0
"14842",12.47,1,7195.18,-34.0,0.99939,0,0,0,0,0,0,0,0
"14843",12.47,1,7195.07,-34.0,0.99938,0,0,0,0,0,0,0,0
"39578",12.47,2,7073.62,-155.2,0.98251,0,0,0,0,0,0,0,0
"786",12.47,2,7186.37,-154.6,0.99817,0,0,0,0,0,0,0,0
"787",12.47,2,7186.19,-154.6,0.99814,0,0,0,0,0,0,0,0
"14892",12.47,1,7216.91,-34.1,1.0024,2,7209.2,-154.5,1.0013,3,7239.4,85.7,1.0055
"28247",12.47,1,7213.67,-34.1,1.002,2,7206.89,-154.5,1.001,3,7232.5,85.7,1.0046
"MDV201_1160464ELB_INT",12.47,1,7131.28,-34.2,0.99052,0,0,0,0,0,0,0,0
"74421",12.47,1,7129.56,-34.7,0.99028,0,0,0,0,0,0,0,0
"1144231",12.47,1,7196.37,-34.0,0.99956,0,0,0,0,0,0,0,0
"8193",12.47,1,7195.87,-34.0,0.99949,0,0,0,0,0,0,0,0
"6573",12.47,2,7014.65,-155.3,0.97432,0,0,0,0,0,0,0,0
"8081",12.47,1,7154,-34.2,0.99367,2,7134.58,-155.0,0.99097,3,7233.19,85.6,1.0047
"1012414",12.47,3,7204.96,85.4,1.0008,0,0,0,0,0,0,0,0
"1012415",12.47,3,7204.95,85.4,1.0007,0,0,0,0,0,0,0,0
"28302",12.47,3,7266.84,85.5,1.0093,0,0,0,0,0,0,0,0
"14835",12.47,3,7267.29,85.5,1.0094,0,0,0,0,0,0,0,0
"14844",12.47,3,7267.25,85.5,1.0094,0,0,0,0,0,0,0,0
"8086",12.47,1,7161.92,-34.2,0.99477,3,7230.69,85.6,1.0043,0,0,0,0
"845",12.47,1,7247.92,-33.8,1.0067,0,0,0,0,0,0,0,0
"8139",12.47,1,7179.76,-34.2,0.99725,0,0,0,0,0,0,0,0
"8089",12.47,1,7129.62,-34.2,0.99029,0,0,0,0,0,0,0,0
"MDV201_1160462ELB_INT",12.47,1,7129.61,-34.2,0.99028,0,0,0,0,0,0,0,0
"69465",12.47,1,7127.26,-34.2,0.98996,0,0,0,0,0,0,0,0
"69464",12.47,1,7127.15,-34.2,0.98994,0,0,0,0,0,0,0,0
"1149719",12.47,2,7177.42,-154.6,0.99692,0,0,0,0,0,0,0,0
"1149720",12.47,2,7177.2,-154.6,0.99689,0,0,0,0,0,0,0,0
"793",12.47,2,7195.14,-154.6,0.99939,0,0,0,0,0,0,0,0
"28190",12.47,1,7189.39,-34.2,0.99859,2,7189.17,-154.8,0.99856,0,0,0,0
"28191",12.47,1,7189.38,-34.2,0.99859,2,7189.15,-154.8,0.99855,0,0,0,0
"14994",12.47,2,7038.68,-155.2,0.97765,0,0,0,0,0,0,0,0
"63661",12.47,2,7206.59,-154.6,1.001,0,0,0,0,0,0,0,0
"63665",12.47,1,7211.78,-34.1,1.0017,2,7200.46,-154.7,1.0001,3,7259.81,85.7,1.0084
"28236",12.47,3,7255.99,85.7,1.0078,0,0,0,0,0,0,0,0
"63712",12.47,3,7202.15,85.5,1.0004,0,0,0,0,0,0,0,0
"8197",12.47,2,7014.03,-155.3,0.97423,0,0,0,0,0,0,0,0
"63633",12.47,2,7196.67,-154.6,0.9996,0,0,0,0,0,0,0,0
"28275",12.47,3,7263.65,85.5,1.0089,0,0,0,0,0,0,0,0
"67896",12.47,1,7149.77,-34.7,0.99308,2,7165.64,-154.6,0.99529,3,7135.77,85.1,0.99114
"8105",12.47,1,7139.48,-34.2,0.99165,0,0,0,0,0,0,0,0
"MDV201_1160506ELB_INT",12.47,1,7139.47,-34.2,0.99165,0,0,0,0,0,0,0,0
"1160506",12.47,1,7139.47,-34.2,0.99165,0,0,0,0,0,0,0,0
"28276",12.47,3,7194.31,85.4,0.99927,0,0,0,0,0,0,0,0
"1144247",12.47,2,7114.19,-155.2,0.98814,0,0,0,0,0,0,0,0
"1160481",12.47,2,6990.35,-155.3,0.97094,0,0,0,0,0,0,0,0
"MDV201_39755ELB_INT",12.47,2,6990.34,-155.3,0.97094,0,0,0,0,0,0,0,0
"39758",12.47,2,7071.61,-155.2,0.98223,0,0,0,0,0,0,0,0
"52520",12.47,2,7053.34,-155.3,0.97969,0,0,0,0,0,0,0,0
"1144240",12.47,1,7171.12,-34.5,0.99605,0,0,0,0,0,0,0,0
"56788",12.47,2,6996.75,-155.3,0.97183,0,0,0,0,0,0,0,0
"89824",12.47,1,7117.07,-34.2,0.98854,0,0,0,0,0,0,0,0
"89823",12.47,1,7117,-34.2,0.98853,0,0,0,0,0,0,0,0
"21651",12.47,1,7181.81,-34.2,0.99753,0,0,0,0,0,0,0,0
"63637",12.47,2,7195.71,-154.6,0.99947,0,0,0,0,0,0,0,0
"63632",12.47,2,7195.48,-154.6,0.99943,0,0,0,0,0,0,0,0
"28270",12.47,3,7191.35,85.4,0.99886,0,0,0,0,0,0,0,0
"63717",12.47,3,7201.87,85.5,1.0003,0,0,0,0,0,0,0,0
"28259",12.47,3,7185.59,85.4,0.99806,0,0,0,0,0,0,0,0
"28260",12.47,3,7184.04,85.4,0.99784,0,0,0,0,0,0,0,0
"14991",12.47,2,6998.05,-155.3,0.97201,0,0,0,0,0,0,0,0
"14997",12.47,2,6997.96,-155.3,0.972,0,0,0,0,0,0,0,0
"1144251",12.47,2,7014.65,-155.3,0.97432,0,0,0,0,0,0,0,0
"74451",12.47,2,7156.24,-154.6,0.99398,0,0,0,0,0,0,0,0
"46389",12.47,2,7154.72,-154.6,0.99377,0,0,0,0,0,0,0,0
"843",12.47,1,7247.14,-33.8,1.0066,0,0,0,0,0,0,0,0
"838",12.47,1,7246.64,-33.8,1.0065,0,0,0,0,0,0,0,0
"MDV201_8147ELB_INT",12.47,1,7139.51,-34.2,0.99166,0,0,0,0,0,0,0,0
"94741",12.47,2,7054.99,-155.3,0.97992,0,0,0,0,0,0,0,0
"69458",12.47,1,7126.99,-34.2,0.98992,0,0,0,0,0,0,0,0
"69459",12.47,1,7126.91,-34.2,0.98991,0,0,0,0,0,0,0,0
"1144250",12.47,2,6999.49,-155.3,0.97221,0,0,0,0,0,0,0,0
"6578",12.47,1,7160.74,-34.6,0.99461,2,7184.84,-154.6,0.99796,3,7160.87,85.3,0.99463
"14979",12.47,3,7180.63,85.4,0.99737,0,0,0,0,0,0,0,0
"14978",12.47,3,7180.22,85.4,0.99731,0,0,0,0,0,0,0,0
"74454",12.47,3,7117.72,85.1,0.98863,0,0,0,0,0,0,0,0
"102188",12.47,3,7267.46,85.5,1.0094,0,0,0,0,0,0,0,0
"8118",12.47,1,7154.79,-34.2,0.99378,0,0,0,0,0,0,0,0
"104582",12.47,3,7131.03,85.1,0.99048,0,0,0,0,0,0,0,0
"14894",12.47,1,7202.04,-34.1,1.0003,0,0,0,0,0,0,0,0
"63682",12.47,1,7207.01,-34.1,1.001,2,7190.87,-154.7,0.99879,3,7257.15,85.7,1.008
"74414",12.47,2,7175.35,-154.6,0.99664,0,0,0,0,0,0,0,0
"1160498",12.47,1,7139.41,-34.2,0.99165,0,0,0,0,0,0,0,0
"MDV201_8109ELB_INT",12.47,1,7139.4,-34.2,0.99164,0,0,0,0,0,0,0,0
"8109",12.47,1,7139.4,-34.2,0.99164,0,0,0,0,0,0,0,0
"63635",12.47,2,7198.64,-154.6,0.99987,0,0,0,0,0,0,0,0
"8183",12.47,1,7195,-34.0,0.99937,0,0,0,0,0,0,0,0
"8182",12.47,1,7194.88,-34.0,0.99935,0,0,0,0,0,0,0,0
"1010730",12.47,1,7172.11,-34.5,0.99619,2,7185.21,-154.5,0.99801,3,7165.47,85.3,0.99527
"63673",12.47,3,7222.17,85.5,1.0031,0,0,0,0,0,0,0,0
"1160503",12.47,1,7139.68,-34.2,0.99168,0,0,0,0,0,0,0,0
"44583",12.47,1,7202.52,-34.3,1.0004,2,7195.36,-154.5,0.99942,3,7200.93,85.5,1.0002
"1160460",12.47,1,7141.85,-34.2,0.99198,0,0,0,0,0,0,0,0
"MDV201_8145ELB_INT",12.47,1,7141.82,-34.2,0.99198,0,0,0,0,0,0,0,0
"69616",12.47,1,7118.34,-34.2,0.98872,2,7074.6,-155.2,0.98264,3,7216.52,85.4,1.0024
"39624",12.47,2,7123.37,-155.0,0.98942,0,0,0,0,0,0,0,0
"MDV201_8101ELB_INT",12.47,1,7139.67,-34.2,0.99168,0,0,0,0,0,0,0,0
"28307",12.47,1,7117.19,-34.2,0.98856,0,0,0,0,0,0,0,0
"39596",12.47,1,7120.53,-34.2,0.98902,0,0,0,0,0,0,0,0
"1160499",12.47,1,7139.59,-34.2,0.99167,0,0,0,0,0,0,0,0
"MDV201_8146ELB_INT",12.47,1,7139.58,-34.2,0.99167,0,0,0,0,0,0,0,0
"8146",12.47,1,7139.58,-34.2,0.99167,0,0,0,0,0,0,0,0
"58412",12.47,1,7149.68,-34.7,0.99307,0,0,0,0,0,0,0,0
"58413",12.47,1,7149.58,-34.7,0.99306,0,0,0,0,0,0,0,0
"46387",12.47,2,7151.94,-154.7,0.99339,0,0,0,0,0,0,0,0
"1012413",12.47,3,7205.05,85.4,1.0008,0,0,0,0,0,0,0,0
"MDV201_1160495ELB_INT",12.47,1,7130.61,-34.2,0.99042,0,0,0,0,0,0,0,0
"28227",12.47,3,7255.56,85.6,1.0078,0,0,0,0,0,0,0,0
"1160459",12.47,1,7143.15,-34.2,0.99217,0,0,0,0,0,0,0,0
"39603",12.47,2,7120.72,-155.0,0.98905,0,0,0,0,0,0,0,0
"28283",12.47,1,7118.01,-34.2,0.98867,0,0,0,0,0,0,0,0
"58417",12.47,1,7149.98,-34.7,0.99311,2,7165.5,-154.6,0.99527,3,7135.9,85.1,0.99116
"108763",12.47,1,7189.29,-34.2,0.99857,2,7189.08,-154.8,0.99855,3,7249.35,85.6,1.0069
"28230",12.47,1,7199.52,-34.1,0.99999,0,0,0,0,0,0,0,0
"8187",12.47,1,7195.28,-34.0,0.99941,0,0,0,0,0,0,0,0
"MDV201_C_1P031_1160490_INT",12.47,1,7139.51,-34.2,0.99166,0,0,0,0,0,0,0,0
"58425",12.47,1,7148.85,-34.7,0.99296,0,0,0,0,0,0,0,0
"14830",12.47,3,7274.02,85.5,1.0103,0,0,0,0,0,0,0,0
"14837",12.47,3,7264.02,85.5,1.009,0,0,0,0,0,0,0,0
"8106",12.47,1,7157.78,-34.2,0.9942,0,0,0,0,0,0,0,0
"1160457",12.47,1,7139.8,-34.2,0.9917,0,0,0,0,0,0,0,0
"1163437",12.47,3,7166.4,85.3,0.99539,0,0,0,0,0,0,0,0
"14877",12.47,1,7198.78,-34.1,0.99989,0,0,0,0,0,0,0,0
"1160471",12.47,2,6996.84,-155.3,0.97184,0,0,0,0,0,0,0,0
"MDV201_6568ELB_INT",12.47,2,6996.79,-155.3,0.97184,0,0,0,0,0,0,0,0
"8188",12.47,3,7150.63,85.3,0.9932,0,0,0,0,0,0,0,0
"56787",12.47,1,7131.45,-34.7,0.99054,0,0,0,0,0,0,0,0
"MDV201_39756ELB_INT",12.47,2,6991,-155.3,0.97103,0,0,0,0,0,0,0,0
"62259",12.47,3,7166.7,85.3,0.99544,0,0,0,0,0,0,0,0
"14832",12.47,1,7195.04,-33.9,0.99937,2,7125.84,-155.1,0.98976,3,7273.63,85.5,1.0103
"56750",12.47,1,7149.53,-34.6,0.99305,0,0,0,0,0,0,0,0
"46395",12.47,1,7148.27,-34.6,0.99288,2,7166.29,-154.6,0.99538,3,7141.34,85.2,0.99191
"MDV201_8144ELB_INT",12.47,1,7143.18,-34.2,0.99217,0,0,0,0,0,0,0,0
"8144",12.47,1,7143.18,-34.2,0.99217,0,0,0,0,0,0,0,0
"811",12.47,2,7195.55,-154.6,0.99944,0,0,0,0,0,0,0,0
"8122",12.47,1,7155.91,-34.2,0.99394,0,0,0,0,0,0,0,0
"104356",12.47,3,7203.4,85.5,1.0005,0,0,0,0,0,0,0,0
"44581",12.47,3,7202.66,85.5,1.0004,0,0,0,0,0,0,0,0
"74434",12.47,1,7146.04,-34.6,0.99257,0,0,0,0,0,0,0,0
"1103249",12.47,2,6999.22,-155.3,0.97217,0,0,0,0,0,0,0,0
"44584",12.47,1,7201.74,-34.3,1.0003,2,7194.68,-154.5,0.99932,3,7198.7,85.5,0.99988
"8137",12.47,1,7178.13,-34.2,0.99702,0,0,0,0,0,0,0,0
"8138",12.47,1,7178.05,-34.2,0.99701,0,0,0,0,0,0,0,0
"8154",12.47,3,7225.74,85.5,1.0036,0,0,0,0,0,0,0,0
"63644",12.47,2,7202.58,-154.6,1.0004,0,0,0,0,0,0,0,0
"1008228",12.47,2,7100.73,-155.1,0.98627,0,0,0,0,0,0,0,0
"39742",12.47,3,7106.92,85.1,0.98713,0,0,0,0,0,0,0,0
"102189",12.47,3,7191.35,85.4,0.99886,0,0,0,0,0,0,0,0
"107993",12.47,1,7127.39,-34.2,0.98998,0,0,0,0,0,0,0,0
"8120",12.47,1,7155.31,-34.2,0.99385,0,0,0,0,0,0,0,0
"74436",12.47,3,7101.47,85.1,0.98638,0,0,0,0,0,0,0,0
"56786",12.47,1,7133.72,-34.7,0.99086,0,0,0,0,0,0,0,0
"94729",12.47,1,7118.32,-34.2,0.98872,2,7074.88,-155.2,0.98268,3,7218.49,85.5,1.0026
"69486",12.47,1,7126.75,-34.2,0.98989,2,7099.69,-155.1,0.98613,3,7229.71,85.5,1.0042
"39598",12.47,1,7120.6,-34.2,0.98903,0,0,0,0,0,0,0,0
"63715",12.47,1,7205.8,-34.2,1.0009,0,0,0,0,0,0,0,0
"1160453",12.47,3,7201.88,85.5,1.0003,0,0,0,0,0,0,0,0
"MDV201_1012644ELB_INT",12.47,3,7201.88,85.5,1.0003,0,0,0,0,0,0,0,0
"1012644",12.47,3,7201.88,85.5,1.0003,0,0,0,0,0,0,0,0
"8125",12.47,3,7248.71,85.6,1.0068,0,0,0,0,0,0,0,0
"MDV201_1163438ELB_INT",12.47,3,7166.4,85.3,0.99539,0,0,0,0,0,0,0,0
"62309",12.47,3,7155.96,85.3,0.99394,0,0,0,0,0,0,0,0
"28268",12.47,3,7191.27,85.4,0.99885,0,0,0,0,0,0,0,0
"8096",12.47,2,7186.37,-154.8,0.99817,0,0,0,0,0,0,0,0
"MDV201_8105ELB_INT",12.47,1,7139.48,-34.2,0.99165,0,0,0,0,0,0,0,0
"8198",12.47,2,7013.96,-155.3,0.97422,0,0,0,0,0,0,0,0
"MDV201_99420USD_INT",12.47,1,7155.54,-34.6,0.99389,2,7184.49,-154.6,0.99791,3,7158.68,85.3,0.99432
"74433",12.47,1,7146.66,-34.6,0.99265,2,7170.48,-154.6,0.99596,3,7145.75,85.2,0.99253
"74439",12.47,1,7147.04,-34.6,0.9927,2,7168.71,-154.6,0.99572,3,7144.53,85.2,0.99236
"1023340",12.47,2,7165.32,-154.6,0.99524,0,0,0,0,0,0,0,0
"58435",12.47,3,7130.87,85.1,0.99046,0,0,0,0,0,0,0,0
"8181",12.47,1,7197.71,-34.0,0.99974,2,7152.83,-155.0,0.99351,3,7265.24,85.6,1.0091
"39585",12.47,2,7051.2,-155.3,0.97939,0,0,0,0,0,0,0,0
"8207",12.47,2,6996.46,-155.3,0.97179,0,0,0,0,0,0,0,0
"1010734",12.47,1,7191,-34.2,0.99881,2,7179.44,-154.8,0.99721,3,7250.52,85.6,1.0071
"28269",12.47,3,7189.27,85.4,0.99857,0,0,0,0,0,0,0,0
"MDV201_OSW_1127424_INT",12.47,1,7127.39,-34.2,0.98998,2,7100.8,-155.1,0.98628,3,7230.62,85.5,1.0043
"52528",12.47,3,7253.6,85.6,1.0075,0,0,0,0,0,0,0,0
"52529",12.47,3,7253.52,85.6,1.0075,0,0,0,0,0,0,0,0
"28265",12.47,3,7187.85,85.4,0.99837,0,0,0,0,0,0,0,0
"102181",12.47,1,7205.46,-34.1,1.0008,0,0,0,0,0,0,0,0
"69461",12.47,1,7127.06,-34.2,0.98993,0,0,0,0,0,0,0,0
"813",12.47,2,7189.79,-154.6,0.99864,0,0,0,0,0,0,0,0
"69628",12.47,1,7118.73,-34.2,0.98877,2,7073.63,-155.2,0.98251,3,7210.72,85.4,1.0016
"111079",12.47,2,7165.88,-154.6,0.99532,0,0,0,0,0,0,0,0
"28292",12.47,2,7071.47,-155.2,0.98221,3,7197.94,85.4,0.99978,0,0,0,0
"1144256",12.47,1,7197.71,-34.0,0.99974,0,0,0,0,0,0,0,0
"88661",12.47,2,7165.84,-154.6,0.99532,0,0,0,0,0,0,0,0
"15010",12.47,1,7160.62,-34.6,0.99459,0,0,0,0,0,0,0,0
"1032415",12.47,1,7118.95,-34.2,0.9888,2,7073.2,-155.2,0.98245,3,7208.54,85.4,1.0012
"839",12.47,3,7232.07,85.6,1.0045,0,0,0,0,0,0,0,0
"807",12.47,2,7187.42,-154.6,0.99831,0,0,0,0,0,0,0,0
"63656",12.47,1,7227.75,-34.0,1.0039,2,7216.89,-154.5,1.0024,3,7262.37,85.8,1.0087
"MDV201_107107USD_INT",12.47,1,7227.62,-34.0,1.0039,2,7216.8,-154.5,1.0024,3,7262.2,85.8,1.0087
"1144229",12.47,2,7194.07,-154.5,0.99924,0,0,0,0,0,0,0,0
"MDV201_8089ELB_INT",12.47,1,7129.62,-34.2,0.99029,0,0,0,0,0,0,0,0
"784",12.47,1,7256.58,-33.8,1.0079,0,0,0,0,0,0,0,0
"8167",12.47,1,7195.29,-34.3,0.99941,2,7189.38,-154.5,0.99859,3,7182.72,85.4,0.99766
"15002",12.47,2,7052.55,-155.2,0.97958,0,0,0,0,0,0,0,0
"15009",12.47,2,7052.54,-155.2,0.97958,0,0,0,0,0,0,0,0
"63679",12.47,1,7205.96,-34.1,1.0009,0,0,0,0,0,0,0,0
"63641",12.47,2,7196.22,-154.6,0.99954,0,0,0,0,0,0,0,0
"MDV201_1160459ELB_INT",12.47,1,7143.15,-34.2,0.99217,0,0,0,0,0,0,0,0
...